1

   Abaqus 6.14-2                                  Date 24-kwi-2017   Time 20:02:33
   

                                                                                 
 Cooling                                                                         
 STEP    1     INCREMENT     1     STEP TIME    0.00    


                        S T E P       1     T R A N S I E N T   H E A T   T R A N S F E R


          Cooling                                                                         

     AUTOMATIC TIME CONTROL WITH -
          A SUGGESTED INITIAL TIME INCREMENT OF                1.000E-02
          AND A TOTAL TIME PERIOD OF                           1.200E+03
          THE MINIMUM TIME INCREMENT ALLOWED IS                3.000E-03
          THE MAXIMUM TIME INCREMENT ALLOWED IS                 1.00    

     THE SIZE OF THE TIME INCREMENT IS CONTROLLED BY -
          THE TEMPERATURE CHANGE PER INCREMENT NOT EXCEEDING           1.000E+06

 CONVERGENCE TOLERANCE PARAMETERS FOR HEAT FLUX
     CRITERION FOR RESIDUAL HEAT FLUX FOR A NONLINEAR PROBLEM          5.000E-03
     CRITERION FOR TEMP.    CORRECTION IN A NONLINEAR PROBLEM          1.000E-02
     INITIAL VALUE OF TIME AVERAGE HEAT FLUX                           1.000E-02
     AVERAGE HEAT FLUX IS TIME AVERAGE HEAT FLUX
     ALTERNATE CRIT. FOR RESIDUAL HEAT FLUX FOR A NONLINEAR PROBLEM    2.000E-02
     CRITERION FOR ZERO HEAT FLUX RELATIVE TO TIME AVRG. HEAT FLUX     1.000E-05
     CRITERION FOR RESIDUAL HEAT FLUX WHEN THERE IS ZERO FLUX          1.000E-05
     CRITERION FOR TEMP.    CORRECTION WHEN THERE IS ZERO FLUX         1.000E-03
     CRITERION FOR RESIDUAL HEAT FLUX FOR A LINEAR INCREMENT           1.000E-08
     FIELD CONVERSION RATIO                                             1.00    
     CRITERION FOR ZERO HEAT FLUX REL. TO TIME AVRG. MAX. HEAT FLUX    1.000E-05

     VOLUMETRIC STRAIN COMPATIBILITY TOLERANCE FOR HYBRID SOLIDS       1.000E-05
     AXIAL STRAIN COMPATIBILITY TOLERANCE FOR HYBRID BEAMS             1.000E-05
     TRANS. SHEAR STRAIN COMPATIBILITY TOLERANCE FOR HYBRID BEAMS      1.000E-05
     SOFT CONTACT CONSTRAINT COMPATIBILITY TOLERANCE FOR P>P0          5.000E-03
     SOFT CONTACT CONSTRAINT COMPATIBILITY TOLERANCE FOR P=0.0         0.100    
     CONTACT FORCE ERROR TOLERANCE FOR CONVERT SDI=YES                 1.00    
     DISPLACEMENT COMPATIBILITY TOLERANCE FOR DCOUP ELEMENTS           1.000E-05
     ROTATION COMPATIBILITY TOLERANCE FOR DCOUP ELEMENTS               1.000E-05

 TIME INCREMENTATION CONTROL PARAMETERS:
     FIRST EQUILIBRIUM ITERATION FOR CONSECUTIVE DIVERGENCE CHECK              4
     EQUILIBRIUM ITERATION AT WHICH LOG. CONVERGENCE RATE CHECK BEGINS         8
     EQUILIBRIUM ITERATION AFTER WHICH ALTERNATE RESIDUAL IS USED              9
     MAXIMUM EQUILIBRIUM ITERATIONS ALLOWED                                   16
     EQUILIBRIUM ITERATION COUNT FOR CUT-BACK IN NEXT INCREMENT               10
     MAXIMUM EQUILIB. ITERS IN TWO INCREMENTS FOR TIME INCREMENT INCREASE      4
     MAXIMUM ITERATIONS FOR SEVERE DISCONTINUITIES                            12
     MAXIMUM CUT-BACKS ALLOWED IN AN INCREMENT                                 5
     MAXIMUM DISCON. ITERS IN TWO INCREMENTS FOR TIME INCREMENT INCREASE       6
     MAXIMUM CONTACT AUGMENTATIONS FOR *SURFACE BEHAVIOR,AUGMENTED LAGRANGE   50
     CONSECUTIVE INCS MEETING TIME INTEG. TOL. FOR TIME INC. INCREASE          3
     CUT-BACK FACTOR AFTER DIVERGENCE                                 0.2500    
     CUT-BACK FACTOR FOR TOO SLOW CONVERGENCE                         0.5000    
     CUT-BACK FACTOR AFTER TOO MANY EQUILIBRIUM ITERATIONS            0.7500    
     CUT-BACK FACTOR AFTER TOO MANY SEVERE DISCONTINUITY ITERATIONS   0.2500    
     CUT-BACK FACTOR AFTER PROBLEMS IN ELEMENT ASSEMBLY               0.2500    
     INCREASE FACTOR AFTER TWO INCREMENTS THAT CONVERGE QUICKLY        1.500    
     MAX. TIME INCREMENT INCREASE FACTOR ALLOWED                       1.500    
     MAX. TIME INCREMENT INCREASE FACTOR ALLOWED (DYNAMICS)            1.250    
     MAX. TIME INCREMENT INCREASE FACTOR ALLOWED (DIFFUSION)           2.000    
     MINIMUM TIME INCREMENT RATIO FOR EXTRAPOLATION TO OCCUR          0.1000    
     CUT-BACK FACTOR WHEN TIME INTEGRATION ACCURACY TOL. EXCEEDED     0.8500    
     MAX. RATIO OF TIME INTEG. MEASURE TO TOL. FOR TIME INC. INCREASE 0.7500    
     INCREASE FACTOR FOR TIME INCREMENT WHEN POSSIBLE                 0.8000    
     MIN. TIME INC. INCREASE FACTOR IN LINEAR TRANSIENT PROBLEMS      0.9500    
     MAX. RATIO OF TIME INCREMENT TO STABILITY LIMIT                   1.000    
     FRACTION OF STABILITY LIMIT FOR NEW TIME INCREMENT               0.9500    
     TIME INCREMENT INCREASE FACTOR BEFORE A TIME POINT                1.000    
     GLOBAL STABILIZATION CONTROL IS NOT USED

          PRINT OF INCREMENT NUMBER, TIME, ETC., EVERY    1  INCREMENTS

     THE MAXIMUM NUMBER OF INCREMENTS IN THIS STEP IS                   10000

     LINEAR EXTRAPOLATION WILL BE USED

     CHARACTERISTIC ELEMENT LENGTH     3.226E-03

     DETAILS REGARDING ACTUAL SOLUTION WAVEFRONT REQUESTED

     DETAILED OUTPUT OF DIAGNOSTICS TO DATABASE REQUESTED

     PRINT OF INCREMENT NUMBER, TIME, ETC., TO THE MESSAGE FILE EVERY     1  INCREMENTS

     COLLECTING MODEL CONSTRAINT INFORMATION FOR OVERCONSTRAINT CHECKS

     COLLECTING STEP CONSTRAINT INFORMATION FOR OVERCONSTRAINT CHECKS


  INCREMENT     1 STARTS. ATTEMPT NUMBER  1, TIME INCREMENT  1.000E-02

  NUMBER OF EQUATIONS =      864     NUMBER OF FLOATING PT. OPERATIONS =  2.67E+05

     CHECK POINT   START OF SOLVER    

     CHECK POINT  END OF SOLVER       

       ELAPSED USER TIME (SEC)      =   0.0000    
       ELAPSED SYSTEM TIME (SEC)    =   0.0000    
       ELAPSED TOTAL CPU TIME (SEC) =   0.0000    
       ELAPSED WALLCLOCK TIME (SEC) =          0

               CONVERGENCE CHECKS FOR EQUILIBRIUM ITERATION     1


 AVERAGE HEAT FLUX                   52.9       TIME AVG. HEAT FLUX    52.9    
 LARGEST RESIDUAL HEAT FLUX        -1.738E-03   AT NODE         58   DOF 11
   INSTANCE: SZYNA2D-1                                                                       
 LARGEST INCREMENT OF TEMP.         -1.84       AT NODE         81   DOF 11
   INSTANCE: SZYNA2D-1                                                                       
 LARGEST CORRECTION TO TEMP.        -1.84       AT NODE         81   DOF 11
   INSTANCE: SZYNA2D-1                                                                       
 ESTIMATE OF TEMP.    CORRECTION   -1.256E-06
 HEAT FLUX EQUILIB. ACCEPTED BASED ON SMALL RESIDUAL AND ESTIMATED CORRECTION

 MAXIMUM NON-PRESCRIBED INCREMENT IN TEMPERATURE IS   -1.84    

 ITERATION SUMMARY FOR THE INCREMENT:   1 TOTAL ITERATIONS, OF WHICH
   0 ARE SEVERE DISCONTINUITY ITERATIONS AND  1 ARE EQUILIBRIUM ITERATIONS.

 TIME INCREMENT COMPLETED  1.000E-02,  FRACTION OF STEP COMPLETED  8.333E-06
 STEP TIME COMPLETED       1.000E-02,  TOTAL TIME COMPLETED        1.000E-02


  INCREMENT     2 STARTS. ATTEMPT NUMBER  1, TIME INCREMENT  1.000E-02

  NUMBER OF EQUATIONS =      864     NUMBER OF FLOATING PT. OPERATIONS =  2.67E+05

     CHECK POINT   START OF SOLVER    

     CHECK POINT  END OF SOLVER       

       ELAPSED USER TIME (SEC)      =   0.0000    
       ELAPSED SYSTEM TIME (SEC)    =   0.0000    
       ELAPSED TOTAL CPU TIME (SEC) =   0.0000    
       ELAPSED WALLCLOCK TIME (SEC) =          0

               CONVERGENCE CHECKS FOR EQUILIBRIUM ITERATION     1


 AVERAGE HEAT FLUX                   90.0       TIME AVG. HEAT FLUX    71.4    
 LARGEST RESIDUAL HEAT FLUX        -5.603E-06   AT NODE         81   DOF 11
   INSTANCE: SZYNA2D-1                                                                       
 LARGEST INCREMENT OF TEMP.         -1.71       AT NODE         81   DOF 11
   INSTANCE: SZYNA2D-1                                                                       
 LARGEST CORRECTION TO TEMP.        0.125       AT NODE         81   DOF 11
   INSTANCE: SZYNA2D-1                                                                       
 ESTIMATE OF TEMP.    CORRECTION   -5.840E-09
 HEAT FLUX EQUILIB. ACCEPTED BASED ON SMALL RESIDUAL AND ESTIMATED CORRECTION

 MAXIMUM NON-PRESCRIBED INCREMENT IN TEMPERATURE IS   -1.71    

 ITERATION SUMMARY FOR THE INCREMENT:   1 TOTAL ITERATIONS, OF WHICH
   0 ARE SEVERE DISCONTINUITY ITERATIONS AND  1 ARE EQUILIBRIUM ITERATIONS.

 TIME INCREMENT COMPLETED  1.000E-02,  FRACTION OF STEP COMPLETED  1.667E-05
 STEP TIME COMPLETED       2.000E-02,  TOTAL TIME COMPLETED        2.000E-02


  INCREMENT     3 STARTS. ATTEMPT NUMBER  1, TIME INCREMENT  1.000E-02

  NUMBER OF EQUATIONS =      864     NUMBER OF FLOATING PT. OPERATIONS =  2.67E+05

     CHECK POINT   START OF SOLVER    

     CHECK POINT  END OF SOLVER       

       ELAPSED USER TIME (SEC)      =   0.0000    
       ELAPSED SYSTEM TIME (SEC)    =   0.0000    
       ELAPSED TOTAL CPU TIME (SEC) =   0.0000    
       ELAPSED WALLCLOCK TIME (SEC) =          0

               CONVERGENCE CHECKS FOR EQUILIBRIUM ITERATION     1


 AVERAGE HEAT FLUX                   89.1       TIME AVG. HEAT FLUX    77.3    
 LARGEST RESIDUAL HEAT FLUX        -4.545E-06   AT NODE         81   DOF 11
   INSTANCE: SZYNA2D-1                                                                       
 LARGEST INCREMENT OF TEMP.         -1.60       AT NODE         81   DOF 11
   INSTANCE: SZYNA2D-1                                                                       
 LARGEST CORRECTION TO TEMP.        0.112       AT NODE         81   DOF 11
   INSTANCE: SZYNA2D-1                                                                       
 ESTIMATE OF TEMP.    CORRECTION   -4.585E-09
 HEAT FLUX EQUILIB. ACCEPTED BASED ON SMALL RESIDUAL AND ESTIMATED CORRECTION

 MAXIMUM NON-PRESCRIBED INCREMENT IN TEMPERATURE IS   -1.60    
          TIME INCREMENT MAY NOW INCREASE TO    2.000E-02

 ITERATION SUMMARY FOR THE INCREMENT:   1 TOTAL ITERATIONS, OF WHICH
   0 ARE SEVERE DISCONTINUITY ITERATIONS AND  1 ARE EQUILIBRIUM ITERATIONS.

 TIME INCREMENT COMPLETED  1.000E-02,  FRACTION OF STEP COMPLETED  2.500E-05
 STEP TIME COMPLETED       3.000E-02,  TOTAL TIME COMPLETED        3.000E-02


  INCREMENT     4 STARTS. ATTEMPT NUMBER  1, TIME INCREMENT  2.000E-02

  NUMBER OF EQUATIONS =      864     NUMBER OF FLOATING PT. OPERATIONS =  2.67E+05

     CHECK POINT   START OF SOLVER    

     CHECK POINT  END OF SOLVER       

       ELAPSED USER TIME (SEC)      =   0.0000    
       ELAPSED SYSTEM TIME (SEC)    =   0.0000    
       ELAPSED TOTAL CPU TIME (SEC) =   0.0000    
       ELAPSED WALLCLOCK TIME (SEC) =          0

               CONVERGENCE CHECKS FOR EQUILIBRIUM ITERATION     1


 AVERAGE HEAT FLUX                   87.3       TIME AVG. HEAT FLUX    79.8    
 LARGEST RESIDUAL HEAT FLUX        -4.919E-05   AT NODE         81   DOF 11
   INSTANCE: SZYNA2D-1                                                                       
 LARGEST INCREMENT OF TEMP.         -2.83       AT NODE         81   DOF 11
   INSTANCE: SZYNA2D-1                                                                       
 LARGEST CORRECTION TO TEMP.        0.371       AT NODE         81   DOF 11
   INSTANCE: SZYNA2D-1                                                                       
 ESTIMATE OF TEMP.    CORRECTION   -8.778E-08
 HEAT FLUX EQUILIB. ACCEPTED BASED ON SMALL RESIDUAL AND ESTIMATED CORRECTION

 MAXIMUM NON-PRESCRIBED INCREMENT IN TEMPERATURE IS   -2.83    
          TIME INCREMENT MAY NOW INCREASE TO    4.000E-02

 ITERATION SUMMARY FOR THE INCREMENT:   1 TOTAL ITERATIONS, OF WHICH
   0 ARE SEVERE DISCONTINUITY ITERATIONS AND  1 ARE EQUILIBRIUM ITERATIONS.

 TIME INCREMENT COMPLETED  2.000E-02,  FRACTION OF STEP COMPLETED  4.167E-05
 STEP TIME COMPLETED       5.000E-02,  TOTAL TIME COMPLETED        5.000E-02


  INCREMENT     5 STARTS. ATTEMPT NUMBER  1, TIME INCREMENT  4.000E-02

  NUMBER OF EQUATIONS =      864     NUMBER OF FLOATING PT. OPERATIONS =  2.67E+05

     CHECK POINT   START OF SOLVER    

     CHECK POINT  END OF SOLVER       

       ELAPSED USER TIME (SEC)      =   0.0000    
       ELAPSED SYSTEM TIME (SEC)    =   0.0000    
       ELAPSED TOTAL CPU TIME (SEC) =   0.0000    
       ELAPSED WALLCLOCK TIME (SEC) =          0

               CONVERGENCE CHECKS FOR EQUILIBRIUM ITERATION     1


 AVERAGE HEAT FLUX                   83.1       TIME AVG. HEAT FLUX    80.5    
 LARGEST RESIDUAL HEAT FLUX        -3.943E-04   AT NODE         81   DOF 11
   INSTANCE: SZYNA2D-1                                                                       
 LARGEST INCREMENT OF TEMP.         -4.60       AT NODE         81   DOF 11
   INSTANCE: SZYNA2D-1                                                                       
 LARGEST CORRECTION TO TEMP.         1.06       AT NODE         81   DOF 11
   INSTANCE: SZYNA2D-1                                                                       
 ESTIMATE OF TEMP.    CORRECTION   -1.143E-06
 HEAT FLUX EQUILIB. ACCEPTED BASED ON SMALL RESIDUAL AND ESTIMATED CORRECTION

 MAXIMUM NON-PRESCRIBED INCREMENT IN TEMPERATURE IS   -4.60    
          TIME INCREMENT MAY NOW INCREASE TO    8.000E-02

 ITERATION SUMMARY FOR THE INCREMENT:   1 TOTAL ITERATIONS, OF WHICH
   0 ARE SEVERE DISCONTINUITY ITERATIONS AND  1 ARE EQUILIBRIUM ITERATIONS.

 TIME INCREMENT COMPLETED  4.000E-02,  FRACTION OF STEP COMPLETED  7.500E-05
 STEP TIME COMPLETED       9.000E-02,  TOTAL TIME COMPLETED        9.000E-02


  INCREMENT     6 STARTS. ATTEMPT NUMBER  1, TIME INCREMENT  8.000E-02

  NUMBER OF EQUATIONS =      864     NUMBER OF FLOATING PT. OPERATIONS =  2.67E+05

     CHECK POINT   START OF SOLVER    

     CHECK POINT  END OF SOLVER       

       ELAPSED USER TIME (SEC)      =   0.0000    
       ELAPSED SYSTEM TIME (SEC)    =   0.0000    
       ELAPSED TOTAL CPU TIME (SEC) =   0.0000    
       ELAPSED WALLCLOCK TIME (SEC) =          0

               CONVERGENCE CHECKS FOR EQUILIBRIUM ITERATION     1


 AVERAGE HEAT FLUX                   82.8       TIME AVG. HEAT FLUX    80.9    
 LARGEST RESIDUAL HEAT FLUX        -2.544E-03   AT NODE         58   DOF 11
   INSTANCE: SZYNA2D-1                                                                       
 LARGEST INCREMENT OF TEMP.         -7.14       AT NODE         58   DOF 11
   INSTANCE: SZYNA2D-1                                                                       
 LARGEST CORRECTION TO TEMP.         2.42       AT NODE         81   DOF 11
   INSTANCE: SZYNA2D-1                                                                       
 ESTIMATE OF TEMP.    CORRECTION   -1.080E-05
 HEAT FLUX EQUILIB. ACCEPTED BASED ON SMALL RESIDUAL AND ESTIMATED CORRECTION

 MAXIMUM NON-PRESCRIBED INCREMENT IN TEMPERATURE IS   -7.14    
          TIME INCREMENT MAY NOW INCREASE TO    0.160    

 ITERATION SUMMARY FOR THE INCREMENT:   1 TOTAL ITERATIONS, OF WHICH
   0 ARE SEVERE DISCONTINUITY ITERATIONS AND  1 ARE EQUILIBRIUM ITERATIONS.

 TIME INCREMENT COMPLETED  8.000E-02,  FRACTION OF STEP COMPLETED  1.417E-04
 STEP TIME COMPLETED       0.170    ,  TOTAL TIME COMPLETED        0.170    


  INCREMENT     7 STARTS. ATTEMPT NUMBER  1, TIME INCREMENT  0.160    

  NUMBER OF EQUATIONS =      864     NUMBER OF FLOATING PT. OPERATIONS =  2.67E+05

     CHECK POINT   START OF SOLVER    

     CHECK POINT  END OF SOLVER       

       ELAPSED USER TIME (SEC)      =   0.0000    
       ELAPSED SYSTEM TIME (SEC)    =   0.0000    
       ELAPSED TOTAL CPU TIME (SEC) =   0.0000    
       ELAPSED WALLCLOCK TIME (SEC) =          0

               CONVERGENCE CHECKS FOR EQUILIBRIUM ITERATION     1


 AVERAGE HEAT FLUX                   87.1       TIME AVG. HEAT FLUX    81.7    
 LARGEST RESIDUAL HEAT FLUX        -1.043E-02   AT NODE         58   DOF 11
   INSTANCE: SZYNA2D-1                                                                       
 LARGEST INCREMENT OF TEMP.         -10.3       AT NODE         59   DOF 11
   INSTANCE: SZYNA2D-1                                                                       
 LARGEST CORRECTION TO TEMP.         4.34       AT NODE         81   DOF 11
   INSTANCE: SZYNA2D-1                                                                       
 ESTIMATE OF TEMP.    CORRECTION   -6.016E-05
 HEAT FLUX EQUILIB. ACCEPTED BASED ON SMALL RESIDUAL AND ESTIMATED CORRECTION

 MAXIMUM NON-PRESCRIBED INCREMENT IN TEMPERATURE IS   -10.3    
          TIME INCREMENT MAY NOW INCREASE TO    0.320    

 ITERATION SUMMARY FOR THE INCREMENT:   1 TOTAL ITERATIONS, OF WHICH
   0 ARE SEVERE DISCONTINUITY ITERATIONS AND  1 ARE EQUILIBRIUM ITERATIONS.

 TIME INCREMENT COMPLETED  0.160    ,  FRACTION OF STEP COMPLETED  2.750E-04
 STEP TIME COMPLETED       0.330    ,  TOTAL TIME COMPLETED        0.330    


  INCREMENT     8 STARTS. ATTEMPT NUMBER  1, TIME INCREMENT  0.320    

  NUMBER OF EQUATIONS =      864     NUMBER OF FLOATING PT. OPERATIONS =  2.67E+05

     CHECK POINT   START OF SOLVER    

     CHECK POINT  END OF SOLVER       

       ELAPSED USER TIME (SEC)      =   0.0000    
       ELAPSED SYSTEM TIME (SEC)    =   0.0000    
       ELAPSED TOTAL CPU TIME (SEC) =   0.0000    
       ELAPSED WALLCLOCK TIME (SEC) =          0

               CONVERGENCE CHECKS FOR EQUILIBRIUM ITERATION     1


 AVERAGE HEAT FLUX                   97.9       TIME AVG. HEAT FLUX    83.8    
 LARGEST RESIDUAL HEAT FLUX        -2.574E-02   AT NODE        281   DOF 11
   INSTANCE: SZYNA2D-1                                                                       
 LARGEST INCREMENT OF TEMP.         -15.1       AT NODE         73   DOF 11
   INSTANCE: SZYNA2D-1                                                                       
 LARGEST CORRECTION TO TEMP.         6.70       AT NODE         80   DOF 11
   INSTANCE: SZYNA2D-1                                                                       
 ESTIMATE OF TEMP.    CORRECTION   -2.120E-04
 HEAT FLUX EQUILIB. ACCEPTED BASED ON SMALL RESIDUAL AND ESTIMATED CORRECTION

 MAXIMUM NON-PRESCRIBED INCREMENT IN TEMPERATURE IS   -15.1    
          TIME INCREMENT MAY NOW INCREASE TO    0.640    

 ITERATION SUMMARY FOR THE INCREMENT:   1 TOTAL ITERATIONS, OF WHICH
   0 ARE SEVERE DISCONTINUITY ITERATIONS AND  1 ARE EQUILIBRIUM ITERATIONS.

 TIME INCREMENT COMPLETED  0.320    ,  FRACTION OF STEP COMPLETED  5.417E-04
 STEP TIME COMPLETED       0.650    ,  TOTAL TIME COMPLETED        0.650    


  INCREMENT     9 STARTS. ATTEMPT NUMBER  1, TIME INCREMENT  0.640    

  NUMBER OF EQUATIONS =      864     NUMBER OF FLOATING PT. OPERATIONS =  2.67E+05

     CHECK POINT   START OF SOLVER    

     CHECK POINT  END OF SOLVER       

       ELAPSED USER TIME (SEC)      =   0.0000    
       ELAPSED SYSTEM TIME (SEC)    =   0.0000    
       ELAPSED TOTAL CPU TIME (SEC) =   0.0000    
       ELAPSED WALLCLOCK TIME (SEC) =          0

               CONVERGENCE CHECKS FOR EQUILIBRIUM ITERATION     1


 AVERAGE HEAT FLUX                   115.       TIME AVG. HEAT FLUX    87.3    
 LARGEST RESIDUAL HEAT FLUX        -4.873E-02   AT NODE         57   DOF 11
   INSTANCE: SZYNA2D-1                                                                       
 LARGEST INCREMENT OF TEMP.         -21.6       AT NODE         73   DOF 11
   INSTANCE: SZYNA2D-1                                                                       
 LARGEST CORRECTION TO TEMP.         9.84       AT NODE         52   DOF 11
   INSTANCE: SZYNA2D-1                                                                       
 ESTIMATE OF TEMP.    CORRECTION   -6.259E-04
 HEAT FLUX EQUILIB. ACCEPTED BASED ON SMALL RESIDUAL AND ESTIMATED CORRECTION

 MAXIMUM NON-PRESCRIBED INCREMENT IN TEMPERATURE IS   -21.6    
          TIME INCREMENT MAY NOW INCREASE TO     1.00    

 ITERATION SUMMARY FOR THE INCREMENT:   1 TOTAL ITERATIONS, OF WHICH
   0 ARE SEVERE DISCONTINUITY ITERATIONS AND  1 ARE EQUILIBRIUM ITERATIONS.

 TIME INCREMENT COMPLETED  0.640    ,  FRACTION OF STEP COMPLETED  1.075E-03
 STEP TIME COMPLETED        1.29    ,  TOTAL TIME COMPLETED         1.29    


  INCREMENT    10 STARTS. ATTEMPT NUMBER  1, TIME INCREMENT   1.00    

  NUMBER OF EQUATIONS =      864     NUMBER OF FLOATING PT. OPERATIONS =  2.67E+05

     CHECK POINT   START OF SOLVER    

     CHECK POINT  END OF SOLVER       

       ELAPSED USER TIME (SEC)      =   0.0000    
       ELAPSED SYSTEM TIME (SEC)    =   0.0000    
       ELAPSED TOTAL CPU TIME (SEC) =   0.0000    
       ELAPSED WALLCLOCK TIME (SEC) =          0

               CONVERGENCE CHECKS FOR EQUILIBRIUM ITERATION     1


 AVERAGE HEAT FLUX                   133.       TIME AVG. HEAT FLUX    91.8    
 LARGEST RESIDUAL HEAT FLUX        -4.701E-02   AT NODE         72   DOF 11
   INSTANCE: SZYNA2D-1                                                                       
 LARGEST INCREMENT OF TEMP.         -24.7       AT NODE         73   DOF 11
   INSTANCE: SZYNA2D-1                                                                       
 LARGEST CORRECTION TO TEMP.         9.01       AT NODE         72   DOF 11
   INSTANCE: SZYNA2D-1                                                                       
 ESTIMATE OF TEMP.    CORRECTION   -8.770E-04
 HEAT FLUX EQUILIB. ACCEPTED BASED ON SMALL RESIDUAL AND ESTIMATED CORRECTION

 MAXIMUM NON-PRESCRIBED INCREMENT IN TEMPERATURE IS   -24.7    

 ITERATION SUMMARY FOR THE INCREMENT:   1 TOTAL ITERATIONS, OF WHICH
   0 ARE SEVERE DISCONTINUITY ITERATIONS AND  1 ARE EQUILIBRIUM ITERATIONS.

 TIME INCREMENT COMPLETED   1.00    ,  FRACTION OF STEP COMPLETED  1.908E-03
 STEP TIME COMPLETED        2.29    ,  TOTAL TIME COMPLETED         2.29    


  INCREMENT    11 STARTS. ATTEMPT NUMBER  1, TIME INCREMENT   1.00    

  NUMBER OF EQUATIONS =      864     NUMBER OF FLOATING PT. OPERATIONS =  2.67E+05

     CHECK POINT   START OF SOLVER    

     CHECK POINT  END OF SOLVER       

       ELAPSED USER TIME (SEC)      =   0.0000    
       ELAPSED SYSTEM TIME (SEC)    =   0.0000    
       ELAPSED TOTAL CPU TIME (SEC) =   0.0000    
       ELAPSED WALLCLOCK TIME (SEC) =          0

               CONVERGENCE CHECKS FOR EQUILIBRIUM ITERATION     1


 AVERAGE HEAT FLUX                   145.       TIME AVG. HEAT FLUX    96.7    
 LARGEST RESIDUAL HEAT FLUX        -1.260E-02   AT NODE         73   DOF 11
   INSTANCE: SZYNA2D-1                                                                       
 LARGEST INCREMENT OF TEMP.         -19.9       AT NODE         73   DOF 11
   INSTANCE: SZYNA2D-1                                                                       
 LARGEST CORRECTION TO TEMP.         4.75       AT NODE         73   DOF 11
   INSTANCE: SZYNA2D-1                                                                       
 ESTIMATE OF TEMP.    CORRECTION   -2.917E-04
 HEAT FLUX EQUILIB. ACCEPTED BASED ON SMALL RESIDUAL AND ESTIMATED CORRECTION

 MAXIMUM NON-PRESCRIBED INCREMENT IN TEMPERATURE IS   -19.9    

 ITERATION SUMMARY FOR THE INCREMENT:   1 TOTAL ITERATIONS, OF WHICH
   0 ARE SEVERE DISCONTINUITY ITERATIONS AND  1 ARE EQUILIBRIUM ITERATIONS.

 TIME INCREMENT COMPLETED   1.00    ,  FRACTION OF STEP COMPLETED  2.742E-03
 STEP TIME COMPLETED        3.29    ,  TOTAL TIME COMPLETED         3.29    


  INCREMENT    12 STARTS. ATTEMPT NUMBER  1, TIME INCREMENT   1.00    

  NUMBER OF EQUATIONS =      864     NUMBER OF FLOATING PT. OPERATIONS =  2.67E+05

     CHECK POINT   START OF SOLVER    

     CHECK POINT  END OF SOLVER       

       ELAPSED USER TIME (SEC)      =   0.0000    
       ELAPSED SYSTEM TIME (SEC)    =   0.0000    
       ELAPSED TOTAL CPU TIME (SEC) =   0.0000    
       ELAPSED WALLCLOCK TIME (SEC) =          0

               CONVERGENCE CHECKS FOR EQUILIBRIUM ITERATION     1


 AVERAGE HEAT FLUX                   155.       TIME AVG. HEAT FLUX    102.    
 LARGEST RESIDUAL HEAT FLUX        -4.730E-03   AT NODE         73   DOF 11
   INSTANCE: SZYNA2D-1                                                                       
 LARGEST INCREMENT OF TEMP.         -17.0       AT NODE        348   DOF 11
   INSTANCE: SZYNA2D-1                                                                       
 LARGEST CORRECTION TO TEMP.         2.96       AT NODE         73   DOF 11
   INSTANCE: SZYNA2D-1                                                                       
 ESTIMATE OF TEMP.    CORRECTION   -1.175E-04
 HEAT FLUX EQUILIB. ACCEPTED BASED ON SMALL RESIDUAL AND ESTIMATED CORRECTION

 MAXIMUM NON-PRESCRIBED INCREMENT IN TEMPERATURE IS   -17.0    

 ITERATION SUMMARY FOR THE INCREMENT:   1 TOTAL ITERATIONS, OF WHICH
   0 ARE SEVERE DISCONTINUITY ITERATIONS AND  1 ARE EQUILIBRIUM ITERATIONS.

 TIME INCREMENT COMPLETED   1.00    ,  FRACTION OF STEP COMPLETED  3.575E-03
 STEP TIME COMPLETED        4.29    ,  TOTAL TIME COMPLETED         4.29    


  INCREMENT    13 STARTS. ATTEMPT NUMBER  1, TIME INCREMENT   1.00    

  NUMBER OF EQUATIONS =      864     NUMBER OF FLOATING PT. OPERATIONS =  2.67E+05

     CHECK POINT   START OF SOLVER    

     CHECK POINT  END OF SOLVER       

       ELAPSED USER TIME (SEC)      =   0.0000    
       ELAPSED SYSTEM TIME (SEC)    =   0.0000    
       ELAPSED TOTAL CPU TIME (SEC) =   0.0000    
       ELAPSED WALLCLOCK TIME (SEC) =          0

               CONVERGENCE CHECKS FOR EQUILIBRIUM ITERATION     1


 AVERAGE HEAT FLUX                   162.       TIME AVG. HEAT FLUX    106.    
 LARGEST RESIDUAL HEAT FLUX        -2.219E-03   AT NODE         73   DOF 11
   INSTANCE: SZYNA2D-1                                                                       
 LARGEST INCREMENT OF TEMP.         -15.1       AT NODE        226   DOF 11
   INSTANCE: SZYNA2D-1                                                                       
 LARGEST CORRECTION TO TEMP.         2.06       AT NODE         73   DOF 11
   INSTANCE: SZYNA2D-1                                                                       
 ESTIMATE OF TEMP.    CORRECTION   -4.678E-05
 HEAT FLUX EQUILIB. ACCEPTED BASED ON SMALL RESIDUAL AND ESTIMATED CORRECTION

 MAXIMUM NON-PRESCRIBED INCREMENT IN TEMPERATURE IS   -15.1    

 ITERATION SUMMARY FOR THE INCREMENT:   1 TOTAL ITERATIONS, OF WHICH
   0 ARE SEVERE DISCONTINUITY ITERATIONS AND  1 ARE EQUILIBRIUM ITERATIONS.

 TIME INCREMENT COMPLETED   1.00    ,  FRACTION OF STEP COMPLETED  4.408E-03
 STEP TIME COMPLETED        5.29    ,  TOTAL TIME COMPLETED         5.29    


  INCREMENT    14 STARTS. ATTEMPT NUMBER  1, TIME INCREMENT   1.00    

  NUMBER OF EQUATIONS =      864     NUMBER OF FLOATING PT. OPERATIONS =  2.67E+05

     CHECK POINT   START OF SOLVER    

     CHECK POINT  END OF SOLVER       

       ELAPSED USER TIME (SEC)      =   0.0000    
       ELAPSED SYSTEM TIME (SEC)    =   0.0000    
       ELAPSED TOTAL CPU TIME (SEC) =   0.0000    
       ELAPSED WALLCLOCK TIME (SEC) =          0

               CONVERGENCE CHECKS FOR EQUILIBRIUM ITERATION     1


 AVERAGE HEAT FLUX                   168.       TIME AVG. HEAT FLUX    111.    
 LARGEST RESIDUAL HEAT FLUX        -1.204E-03   AT NODE         73   DOF 11
   INSTANCE: SZYNA2D-1                                                                       
 LARGEST INCREMENT OF TEMP.         -13.7       AT NODE        226   DOF 11
   INSTANCE: SZYNA2D-1                                                                       
 LARGEST CORRECTION TO TEMP.         1.54       AT NODE         73   DOF 11
   INSTANCE: SZYNA2D-1                                                                       
 ESTIMATE OF TEMP.    CORRECTION   -2.363E-05
 HEAT FLUX EQUILIB. ACCEPTED BASED ON SMALL RESIDUAL AND ESTIMATED CORRECTION

 MAXIMUM NON-PRESCRIBED INCREMENT IN TEMPERATURE IS   -13.7    

 ITERATION SUMMARY FOR THE INCREMENT:   1 TOTAL ITERATIONS, OF WHICH
   0 ARE SEVERE DISCONTINUITY ITERATIONS AND  1 ARE EQUILIBRIUM ITERATIONS.

 TIME INCREMENT COMPLETED   1.00    ,  FRACTION OF STEP COMPLETED  5.242E-03
 STEP TIME COMPLETED        6.29    ,  TOTAL TIME COMPLETED         6.29    


  INCREMENT    15 STARTS. ATTEMPT NUMBER  1, TIME INCREMENT   1.00    

  NUMBER OF EQUATIONS =      864     NUMBER OF FLOATING PT. OPERATIONS =  2.67E+05

     CHECK POINT   START OF SOLVER    

     CHECK POINT  END OF SOLVER       

       ELAPSED USER TIME (SEC)      =   0.0000    
       ELAPSED SYSTEM TIME (SEC)    =   0.0000    
       ELAPSED TOTAL CPU TIME (SEC) =   0.0000    
       ELAPSED WALLCLOCK TIME (SEC) =          0

               CONVERGENCE CHECKS FOR EQUILIBRIUM ITERATION     1


 AVERAGE HEAT FLUX                   174.       TIME AVG. HEAT FLUX    115.    
 LARGEST RESIDUAL HEAT FLUX        -7.216E-04   AT NODE         73   DOF 11
   INSTANCE: SZYNA2D-1                                                                       
 LARGEST INCREMENT OF TEMP.         -12.5       AT NODE        226   DOF 11
   INSTANCE: SZYNA2D-1                                                                       
 LARGEST CORRECTION TO TEMP.         1.20       AT NODE         73   DOF 11
   INSTANCE: SZYNA2D-1                                                                       
 ESTIMATE OF TEMP.    CORRECTION   -1.362E-05
 HEAT FLUX EQUILIB. ACCEPTED BASED ON SMALL RESIDUAL AND ESTIMATED CORRECTION

 MAXIMUM NON-PRESCRIBED INCREMENT IN TEMPERATURE IS   -12.5    

 ITERATION SUMMARY FOR THE INCREMENT:   1 TOTAL ITERATIONS, OF WHICH
   0 ARE SEVERE DISCONTINUITY ITERATIONS AND  1 ARE EQUILIBRIUM ITERATIONS.

 TIME INCREMENT COMPLETED   1.00    ,  FRACTION OF STEP COMPLETED  6.075E-03
 STEP TIME COMPLETED        7.29    ,  TOTAL TIME COMPLETED         7.29    


  INCREMENT    16 STARTS. ATTEMPT NUMBER  1, TIME INCREMENT   1.00    

  NUMBER OF EQUATIONS =      864     NUMBER OF FLOATING PT. OPERATIONS =  2.67E+05

     CHECK POINT   START OF SOLVER    

     CHECK POINT  END OF SOLVER       

       ELAPSED USER TIME (SEC)      =   0.0000    
       ELAPSED SYSTEM TIME (SEC)    =   0.0000    
       ELAPSED TOTAL CPU TIME (SEC) =   0.0000    
       ELAPSED WALLCLOCK TIME (SEC) =          0

               CONVERGENCE CHECKS FOR EQUILIBRIUM ITERATION     1


 AVERAGE HEAT FLUX                   178.       TIME AVG. HEAT FLUX    119.    
 LARGEST RESIDUAL HEAT FLUX        -4.638E-04   AT NODE         73   DOF 11
   INSTANCE: SZYNA2D-1                                                                       
 LARGEST INCREMENT OF TEMP.         -11.6       AT NODE        226   DOF 11
   INSTANCE: SZYNA2D-1                                                                       
 LARGEST CORRECTION TO TEMP.        0.977       AT NODE         73   DOF 11
   INSTANCE: SZYNA2D-1                                                                       
 ESTIMATE OF TEMP.    CORRECTION   -8.539E-06
 HEAT FLUX EQUILIB. ACCEPTED BASED ON SMALL RESIDUAL AND ESTIMATED CORRECTION

 MAXIMUM NON-PRESCRIBED INCREMENT IN TEMPERATURE IS   -11.6    

 ITERATION SUMMARY FOR THE INCREMENT:   1 TOTAL ITERATIONS, OF WHICH
   0 ARE SEVERE DISCONTINUITY ITERATIONS AND  1 ARE EQUILIBRIUM ITERATIONS.

 TIME INCREMENT COMPLETED   1.00    ,  FRACTION OF STEP COMPLETED  6.908E-03
 STEP TIME COMPLETED        8.29    ,  TOTAL TIME COMPLETED         8.29    


  INCREMENT    17 STARTS. ATTEMPT NUMBER  1, TIME INCREMENT   1.00    

  NUMBER OF EQUATIONS =      864     NUMBER OF FLOATING PT. OPERATIONS =  2.67E+05

     CHECK POINT   START OF SOLVER    

     CHECK POINT  END OF SOLVER       

       ELAPSED USER TIME (SEC)      =   0.0000    
       ELAPSED SYSTEM TIME (SEC)    =   0.0000    
       ELAPSED TOTAL CPU TIME (SEC) =   0.0000    
       ELAPSED WALLCLOCK TIME (SEC) =          0

               CONVERGENCE CHECKS FOR EQUILIBRIUM ITERATION     1


 AVERAGE HEAT FLUX                   181.       TIME AVG. HEAT FLUX    122.    
 LARGEST RESIDUAL HEAT FLUX        -3.138E-04   AT NODE         73   DOF 11
   INSTANCE: SZYNA2D-1                                                                       
 LARGEST INCREMENT OF TEMP.         -10.8       AT NODE        226   DOF 11
   INSTANCE: SZYNA2D-1                                                                       
 LARGEST CORRECTION TO TEMP.        0.813       AT NODE         73   DOF 11
   INSTANCE: SZYNA2D-1                                                                       
 ESTIMATE OF TEMP.    CORRECTION   -5.680E-06
 HEAT FLUX EQUILIB. ACCEPTED BASED ON SMALL RESIDUAL AND ESTIMATED CORRECTION

 MAXIMUM NON-PRESCRIBED INCREMENT IN TEMPERATURE IS   -10.8    

 ITERATION SUMMARY FOR THE INCREMENT:   1 TOTAL ITERATIONS, OF WHICH
   0 ARE SEVERE DISCONTINUITY ITERATIONS AND  1 ARE EQUILIBRIUM ITERATIONS.

 TIME INCREMENT COMPLETED   1.00    ,  FRACTION OF STEP COMPLETED  7.742E-03
 STEP TIME COMPLETED        9.29    ,  TOTAL TIME COMPLETED         9.29    


  INCREMENT    18 STARTS. ATTEMPT NUMBER  1, TIME INCREMENT   1.00    

  NUMBER OF EQUATIONS =      864     NUMBER OF FLOATING PT. OPERATIONS =  2.67E+05

     CHECK POINT   START OF SOLVER    

     CHECK POINT  END OF SOLVER       

       ELAPSED USER TIME (SEC)      =   0.0000    
       ELAPSED SYSTEM TIME (SEC)    =   0.0000    
       ELAPSED TOTAL CPU TIME (SEC) =   0.0000    
       ELAPSED WALLCLOCK TIME (SEC) =          0

               CONVERGENCE CHECKS FOR EQUILIBRIUM ITERATION     1


 AVERAGE HEAT FLUX                   185.       TIME AVG. HEAT FLUX    126.    
 LARGEST RESIDUAL HEAT FLUX        -2.208E-04   AT NODE         73   DOF 11
   INSTANCE: SZYNA2D-1                                                                       
 LARGEST INCREMENT OF TEMP.         -10.1       AT NODE        816   DOF 11
   INSTANCE: SZYNA2D-1                                                                       
 LARGEST CORRECTION TO TEMP.        0.691       AT NODE        348   DOF 11
   INSTANCE: SZYNA2D-1                                                                       
 ESTIMATE OF TEMP.    CORRECTION   -3.915E-06
 HEAT FLUX EQUILIB. ACCEPTED BASED ON SMALL RESIDUAL AND ESTIMATED CORRECTION

 MAXIMUM NON-PRESCRIBED INCREMENT IN TEMPERATURE IS   -10.1    

 ITERATION SUMMARY FOR THE INCREMENT:   1 TOTAL ITERATIONS, OF WHICH
   0 ARE SEVERE DISCONTINUITY ITERATIONS AND  1 ARE EQUILIBRIUM ITERATIONS.

 TIME INCREMENT COMPLETED   1.00    ,  FRACTION OF STEP COMPLETED  8.575E-03
 STEP TIME COMPLETED        10.3    ,  TOTAL TIME COMPLETED         10.3    


  INCREMENT    19 STARTS. ATTEMPT NUMBER  1, TIME INCREMENT   1.00    

  NUMBER OF EQUATIONS =      864     NUMBER OF FLOATING PT. OPERATIONS =  2.67E+05

     CHECK POINT   START OF SOLVER    

     CHECK POINT  END OF SOLVER       

       ELAPSED USER TIME (SEC)      =   0.0000    
       ELAPSED SYSTEM TIME (SEC)    =   0.0000    
       ELAPSED TOTAL CPU TIME (SEC) =   0.0000    
       ELAPSED WALLCLOCK TIME (SEC) =          0

               CONVERGENCE CHECKS FOR EQUILIBRIUM ITERATION     1


 AVERAGE HEAT FLUX                   187.       TIME AVG. HEAT FLUX    129.    
 LARGEST RESIDUAL HEAT FLUX        -1.602E-04   AT NODE         73   DOF 11
   INSTANCE: SZYNA2D-1                                                                       
 LARGEST INCREMENT OF TEMP.         -9.51       AT NODE        816   DOF 11
   INSTANCE: SZYNA2D-1                                                                       
 LARGEST CORRECTION TO TEMP.        0.598       AT NODE        226   DOF 11
   INSTANCE: SZYNA2D-1                                                                       
 ESTIMATE OF TEMP.    CORRECTION   -2.731E-06
 HEAT FLUX EQUILIB. ACCEPTED BASED ON SMALL RESIDUAL AND ESTIMATED CORRECTION

 MAXIMUM NON-PRESCRIBED INCREMENT IN TEMPERATURE IS   -9.51    

 ITERATION SUMMARY FOR THE INCREMENT:   1 TOTAL ITERATIONS, OF WHICH
   0 ARE SEVERE DISCONTINUITY ITERATIONS AND  1 ARE EQUILIBRIUM ITERATIONS.

 TIME INCREMENT COMPLETED   1.00    ,  FRACTION OF STEP COMPLETED  9.408E-03
 STEP TIME COMPLETED        11.3    ,  TOTAL TIME COMPLETED         11.3    


  INCREMENT    20 STARTS. ATTEMPT NUMBER  1, TIME INCREMENT   1.00    

  NUMBER OF EQUATIONS =      864     NUMBER OF FLOATING PT. OPERATIONS =  2.67E+05

     CHECK POINT   START OF SOLVER    

     CHECK POINT  END OF SOLVER       

       ELAPSED USER TIME (SEC)      =   0.0000    
       ELAPSED SYSTEM TIME (SEC)    =   0.0000    
       ELAPSED TOTAL CPU TIME (SEC) =   0.0000    
       ELAPSED WALLCLOCK TIME (SEC) =          0

               CONVERGENCE CHECKS FOR EQUILIBRIUM ITERATION     1


 AVERAGE HEAT FLUX                   190.       TIME AVG. HEAT FLUX    132.    
 LARGEST RESIDUAL HEAT FLUX        -1.190E-04   AT NODE         73   DOF 11
   INSTANCE: SZYNA2D-1                                                                       
 LARGEST INCREMENT OF TEMP.         -9.02       AT NODE        485   DOF 11
   INSTANCE: SZYNA2D-1                                                                       
 LARGEST CORRECTION TO TEMP.        0.523       AT NODE        226   DOF 11
   INSTANCE: SZYNA2D-1                                                                       
 ESTIMATE OF TEMP.    CORRECTION   -1.975E-06
 HEAT FLUX EQUILIB. ACCEPTED BASED ON SMALL RESIDUAL AND ESTIMATED CORRECTION

 MAXIMUM NON-PRESCRIBED INCREMENT IN TEMPERATURE IS   -9.02    

 ITERATION SUMMARY FOR THE INCREMENT:   1 TOTAL ITERATIONS, OF WHICH
   0 ARE SEVERE DISCONTINUITY ITERATIONS AND  1 ARE EQUILIBRIUM ITERATIONS.

 TIME INCREMENT COMPLETED   1.00    ,  FRACTION OF STEP COMPLETED  1.024E-02
 STEP TIME COMPLETED        12.3    ,  TOTAL TIME COMPLETED         12.3    


  INCREMENT    21 STARTS. ATTEMPT NUMBER  1, TIME INCREMENT   1.00    

  NUMBER OF EQUATIONS =      864     NUMBER OF FLOATING PT. OPERATIONS =  2.67E+05

     CHECK POINT   START OF SOLVER    

     CHECK POINT  END OF SOLVER       

       ELAPSED USER TIME (SEC)      =   0.0000    
       ELAPSED SYSTEM TIME (SEC)    =   0.0000    
       ELAPSED TOTAL CPU TIME (SEC) =   0.0000    
       ELAPSED WALLCLOCK TIME (SEC) =          0

               CONVERGENCE CHECKS FOR EQUILIBRIUM ITERATION     1


 AVERAGE HEAT FLUX                   192.       TIME AVG. HEAT FLUX    135.    
 LARGEST RESIDUAL HEAT FLUX        -9.021E-05   AT NODE         73   DOF 11
   INSTANCE: SZYNA2D-1                                                                       
 LARGEST INCREMENT OF TEMP.         -8.59       AT NODE        485   DOF 11
   INSTANCE: SZYNA2D-1                                                                       
 LARGEST CORRECTION TO TEMP.        0.462       AT NODE        226   DOF 11
   INSTANCE: SZYNA2D-1                                                                       
 ESTIMATE OF TEMP.    CORRECTION   -1.467E-06
 HEAT FLUX EQUILIB. ACCEPTED BASED ON SMALL RESIDUAL AND ESTIMATED CORRECTION

 MAXIMUM NON-PRESCRIBED INCREMENT IN TEMPERATURE IS   -8.59    

 ITERATION SUMMARY FOR THE INCREMENT:   1 TOTAL ITERATIONS, OF WHICH
   0 ARE SEVERE DISCONTINUITY ITERATIONS AND  1 ARE EQUILIBRIUM ITERATIONS.

 TIME INCREMENT COMPLETED   1.00    ,  FRACTION OF STEP COMPLETED  1.107E-02
 STEP TIME COMPLETED        13.3    ,  TOTAL TIME COMPLETED         13.3    


  INCREMENT    22 STARTS. ATTEMPT NUMBER  1, TIME INCREMENT   1.00    

  NUMBER OF EQUATIONS =      864     NUMBER OF FLOATING PT. OPERATIONS =  2.67E+05

     CHECK POINT   START OF SOLVER    

     CHECK POINT  END OF SOLVER       

       ELAPSED USER TIME (SEC)      =   0.0000    
       ELAPSED SYSTEM TIME (SEC)    =   0.0000    
       ELAPSED TOTAL CPU TIME (SEC) =   0.0000    
       ELAPSED WALLCLOCK TIME (SEC) =          0

               CONVERGENCE CHECKS FOR EQUILIBRIUM ITERATION     1


 AVERAGE HEAT FLUX                   194.       TIME AVG. HEAT FLUX    138.    
 LARGEST RESIDUAL HEAT FLUX        -6.949E-05   AT NODE         73   DOF 11
   INSTANCE: SZYNA2D-1                                                                       
 LARGEST INCREMENT OF TEMP.         -8.21       AT NODE        485   DOF 11
   INSTANCE: SZYNA2D-1                                                                       
 LARGEST CORRECTION TO TEMP.        0.410       AT NODE        226   DOF 11
   INSTANCE: SZYNA2D-1                                                                       
 ESTIMATE OF TEMP.    CORRECTION   -1.113E-06
 HEAT FLUX EQUILIB. ACCEPTED BASED ON SMALL RESIDUAL AND ESTIMATED CORRECTION

 MAXIMUM NON-PRESCRIBED INCREMENT IN TEMPERATURE IS   -8.21    

 ITERATION SUMMARY FOR THE INCREMENT:   1 TOTAL ITERATIONS, OF WHICH
   0 ARE SEVERE DISCONTINUITY ITERATIONS AND  1 ARE EQUILIBRIUM ITERATIONS.

 TIME INCREMENT COMPLETED   1.00    ,  FRACTION OF STEP COMPLETED  1.191E-02
 STEP TIME COMPLETED        14.3    ,  TOTAL TIME COMPLETED         14.3    


  INCREMENT    23 STARTS. ATTEMPT NUMBER  1, TIME INCREMENT   1.00    

  NUMBER OF EQUATIONS =      864     NUMBER OF FLOATING PT. OPERATIONS =  2.67E+05

     CHECK POINT   START OF SOLVER    

     CHECK POINT  END OF SOLVER       

       ELAPSED USER TIME (SEC)      =   0.0000    
       ELAPSED SYSTEM TIME (SEC)    =   0.0000    
       ELAPSED TOTAL CPU TIME (SEC) =   0.0000    
       ELAPSED WALLCLOCK TIME (SEC) =          0

               CONVERGENCE CHECKS FOR EQUILIBRIUM ITERATION     1


 AVERAGE HEAT FLUX                   195.       TIME AVG. HEAT FLUX    140.    
 LARGEST RESIDUAL HEAT FLUX        -5.429E-05   AT NODE         73   DOF 11
   INSTANCE: SZYNA2D-1                                                                       
 LARGEST INCREMENT OF TEMP.         -7.86       AT NODE        218   DOF 11
   INSTANCE: SZYNA2D-1                                                                       
 LARGEST CORRECTION TO TEMP.        0.366       AT NODE        226   DOF 11
   INSTANCE: SZYNA2D-1                                                                       
 ESTIMATE OF TEMP.    CORRECTION   -8.586E-07
 HEAT FLUX EQUILIB. ACCEPTED BASED ON SMALL RESIDUAL AND ESTIMATED CORRECTION

 MAXIMUM NON-PRESCRIBED INCREMENT IN TEMPERATURE IS   -7.86    

 ITERATION SUMMARY FOR THE INCREMENT:   1 TOTAL ITERATIONS, OF WHICH
   0 ARE SEVERE DISCONTINUITY ITERATIONS AND  1 ARE EQUILIBRIUM ITERATIONS.

 TIME INCREMENT COMPLETED   1.00    ,  FRACTION OF STEP COMPLETED  1.274E-02
 STEP TIME COMPLETED        15.3    ,  TOTAL TIME COMPLETED         15.3    


  INCREMENT    24 STARTS. ATTEMPT NUMBER  1, TIME INCREMENT   1.00    

  NUMBER OF EQUATIONS =      864     NUMBER OF FLOATING PT. OPERATIONS =  2.67E+05

     CHECK POINT   START OF SOLVER    

     CHECK POINT  END OF SOLVER       

       ELAPSED USER TIME (SEC)      =   0.0000    
       ELAPSED SYSTEM TIME (SEC)    =   0.0000    
       ELAPSED TOTAL CPU TIME (SEC) =   0.0000    
       ELAPSED WALLCLOCK TIME (SEC) =          0

               CONVERGENCE CHECKS FOR EQUILIBRIUM ITERATION     1


 AVERAGE HEAT FLUX                   197.       TIME AVG. HEAT FLUX    143.    
 LARGEST RESIDUAL HEAT FLUX        -4.292E-05   AT NODE         73   DOF 11
   INSTANCE: SZYNA2D-1                                                                       
 LARGEST INCREMENT OF TEMP.         -7.57       AT NODE        218   DOF 11
   INSTANCE: SZYNA2D-1                                                                       
 LARGEST CORRECTION TO TEMP.        0.329       AT NODE        226   DOF 11
   INSTANCE: SZYNA2D-1                                                                       
 ESTIMATE OF TEMP.    CORRECTION   -6.719E-07
 HEAT FLUX EQUILIB. ACCEPTED BASED ON SMALL RESIDUAL AND ESTIMATED CORRECTION

 MAXIMUM NON-PRESCRIBED INCREMENT IN TEMPERATURE IS   -7.57    

 ITERATION SUMMARY FOR THE INCREMENT:   1 TOTAL ITERATIONS, OF WHICH
   0 ARE SEVERE DISCONTINUITY ITERATIONS AND  1 ARE EQUILIBRIUM ITERATIONS.

 TIME INCREMENT COMPLETED   1.00    ,  FRACTION OF STEP COMPLETED  1.357E-02
 STEP TIME COMPLETED        16.3    ,  TOTAL TIME COMPLETED         16.3    


  INCREMENT    25 STARTS. ATTEMPT NUMBER  1, TIME INCREMENT   1.00    

  NUMBER OF EQUATIONS =      864     NUMBER OF FLOATING PT. OPERATIONS =  2.67E+05

     CHECK POINT   START OF SOLVER    

     CHECK POINT  END OF SOLVER       

       ELAPSED USER TIME (SEC)      =   0.0000    
       ELAPSED SYSTEM TIME (SEC)    =   0.0000    
       ELAPSED TOTAL CPU TIME (SEC) =   0.0000    
       ELAPSED WALLCLOCK TIME (SEC) =          0

               CONVERGENCE CHECKS FOR EQUILIBRIUM ITERATION     1


 AVERAGE HEAT FLUX                   198.       TIME AVG. HEAT FLUX    145.    
 LARGEST RESIDUAL HEAT FLUX        -3.431E-05   AT NODE         73   DOF 11
   INSTANCE: SZYNA2D-1                                                                       
 LARGEST INCREMENT OF TEMP.         -7.30       AT NODE        218   DOF 11
   INSTANCE: SZYNA2D-1                                                                       
 LARGEST CORRECTION TO TEMP.        0.297       AT NODE        226   DOF 11
   INSTANCE: SZYNA2D-1                                                                       
 ESTIMATE OF TEMP.    CORRECTION   -5.323E-07
 HEAT FLUX EQUILIB. ACCEPTED BASED ON SMALL RESIDUAL AND ESTIMATED CORRECTION

 MAXIMUM NON-PRESCRIBED INCREMENT IN TEMPERATURE IS   -7.30    

 ITERATION SUMMARY FOR THE INCREMENT:   1 TOTAL ITERATIONS, OF WHICH
   0 ARE SEVERE DISCONTINUITY ITERATIONS AND  1 ARE EQUILIBRIUM ITERATIONS.

 TIME INCREMENT COMPLETED   1.00    ,  FRACTION OF STEP COMPLETED  1.441E-02
 STEP TIME COMPLETED        17.3    ,  TOTAL TIME COMPLETED         17.3    


  INCREMENT    26 STARTS. ATTEMPT NUMBER  1, TIME INCREMENT   1.00    

  NUMBER OF EQUATIONS =      864     NUMBER OF FLOATING PT. OPERATIONS =  2.67E+05

     CHECK POINT   START OF SOLVER    

     CHECK POINT  END OF SOLVER       

       ELAPSED USER TIME (SEC)      =   0.0000    
       ELAPSED SYSTEM TIME (SEC)    =   0.0000    
       ELAPSED TOTAL CPU TIME (SEC) =   0.0000    
       ELAPSED WALLCLOCK TIME (SEC) =          0

               CONVERGENCE CHECKS FOR EQUILIBRIUM ITERATION     1


 AVERAGE HEAT FLUX                   199.       TIME AVG. HEAT FLUX    147.    
 LARGEST RESIDUAL HEAT FLUX        -2.769E-05   AT NODE         73   DOF 11
   INSTANCE: SZYNA2D-1                                                                       
 LARGEST INCREMENT OF TEMP.         -7.05       AT NODE        686   DOF 11
   INSTANCE: SZYNA2D-1                                                                       
 LARGEST CORRECTION TO TEMP.        0.269       AT NODE        226   DOF 11
   INSTANCE: SZYNA2D-1                                                                       
 ESTIMATE OF TEMP.    CORRECTION   -4.263E-07
 HEAT FLUX EQUILIB. ACCEPTED BASED ON SMALL RESIDUAL AND ESTIMATED CORRECTION

 MAXIMUM NON-PRESCRIBED INCREMENT IN TEMPERATURE IS   -7.05    

 ITERATION SUMMARY FOR THE INCREMENT:   1 TOTAL ITERATIONS, OF WHICH
   0 ARE SEVERE DISCONTINUITY ITERATIONS AND  1 ARE EQUILIBRIUM ITERATIONS.

 TIME INCREMENT COMPLETED   1.00    ,  FRACTION OF STEP COMPLETED  1.524E-02
 STEP TIME COMPLETED        18.3    ,  TOTAL TIME COMPLETED         18.3    


  INCREMENT    27 STARTS. ATTEMPT NUMBER  1, TIME INCREMENT   1.00    

  NUMBER OF EQUATIONS =      864     NUMBER OF FLOATING PT. OPERATIONS =  2.67E+05

     CHECK POINT   START OF SOLVER    

     CHECK POINT  END OF SOLVER       

       ELAPSED USER TIME (SEC)      =   0.0000    
       ELAPSED SYSTEM TIME (SEC)    =   0.0000    
       ELAPSED TOTAL CPU TIME (SEC) =   0.0000    
       ELAPSED WALLCLOCK TIME (SEC) =          0

               CONVERGENCE CHECKS FOR EQUILIBRIUM ITERATION     1


 AVERAGE HEAT FLUX                   200.       TIME AVG. HEAT FLUX    149.    
 LARGEST RESIDUAL HEAT FLUX        -2.255E-05   AT NODE         73   DOF 11
   INSTANCE: SZYNA2D-1                                                                       
 LARGEST INCREMENT OF TEMP.         -6.84       AT NODE        829   DOF 11
   INSTANCE: SZYNA2D-1                                                                       
 LARGEST CORRECTION TO TEMP.        0.245       AT NODE        226   DOF 11
   INSTANCE: SZYNA2D-1                                                                       
 ESTIMATE OF TEMP.    CORRECTION   -3.447E-07
 HEAT FLUX EQUILIB. ACCEPTED BASED ON SMALL RESIDUAL AND ESTIMATED CORRECTION

 MAXIMUM NON-PRESCRIBED INCREMENT IN TEMPERATURE IS   -6.84    

 ITERATION SUMMARY FOR THE INCREMENT:   1 TOTAL ITERATIONS, OF WHICH
   0 ARE SEVERE DISCONTINUITY ITERATIONS AND  1 ARE EQUILIBRIUM ITERATIONS.

 TIME INCREMENT COMPLETED   1.00    ,  FRACTION OF STEP COMPLETED  1.607E-02
 STEP TIME COMPLETED        19.3    ,  TOTAL TIME COMPLETED         19.3    


  INCREMENT    28 STARTS. ATTEMPT NUMBER  1, TIME INCREMENT   1.00    

  NUMBER OF EQUATIONS =      864     NUMBER OF FLOATING PT. OPERATIONS =  2.67E+05

     CHECK POINT   START OF SOLVER    

     CHECK POINT  END OF SOLVER       

       ELAPSED USER TIME (SEC)      =   0.0000    
       ELAPSED SYSTEM TIME (SEC)    =   0.0000    
       ELAPSED TOTAL CPU TIME (SEC) =   0.0000    
       ELAPSED WALLCLOCK TIME (SEC) =          0

               CONVERGENCE CHECKS FOR EQUILIBRIUM ITERATION     1


 AVERAGE HEAT FLUX                   201.       TIME AVG. HEAT FLUX    151.    
 LARGEST RESIDUAL HEAT FLUX        -1.851E-05   AT NODE         73   DOF 11
   INSTANCE: SZYNA2D-1                                                                       
 LARGEST INCREMENT OF TEMP.         -6.64       AT NODE        685   DOF 11
   INSTANCE: SZYNA2D-1                                                                       
 LARGEST CORRECTION TO TEMP.        0.224       AT NODE        226   DOF 11
   INSTANCE: SZYNA2D-1                                                                       
 ESTIMATE OF TEMP.    CORRECTION   -2.813E-07
 HEAT FLUX EQUILIB. ACCEPTED BASED ON SMALL RESIDUAL AND ESTIMATED CORRECTION

 MAXIMUM NON-PRESCRIBED INCREMENT IN TEMPERATURE IS   -6.64    

 ITERATION SUMMARY FOR THE INCREMENT:   1 TOTAL ITERATIONS, OF WHICH
   0 ARE SEVERE DISCONTINUITY ITERATIONS AND  1 ARE EQUILIBRIUM ITERATIONS.

 TIME INCREMENT COMPLETED   1.00    ,  FRACTION OF STEP COMPLETED  1.691E-02
 STEP TIME COMPLETED        20.3    ,  TOTAL TIME COMPLETED         20.3    


  INCREMENT    29 STARTS. ATTEMPT NUMBER  1, TIME INCREMENT   1.00    

  NUMBER OF EQUATIONS =      864     NUMBER OF FLOATING PT. OPERATIONS =  2.67E+05

     CHECK POINT   START OF SOLVER    

     CHECK POINT  END OF SOLVER       

       ELAPSED USER TIME (SEC)      =   0.0000    
       ELAPSED SYSTEM TIME (SEC)    =   0.0000    
       ELAPSED TOTAL CPU TIME (SEC) =   0.0000    
       ELAPSED WALLCLOCK TIME (SEC) =          0

               CONVERGENCE CHECKS FOR EQUILIBRIUM ITERATION     1


 AVERAGE HEAT FLUX                   202.       TIME AVG. HEAT FLUX    152.    
 LARGEST RESIDUAL HEAT FLUX        -1.532E-05   AT NODE         73   DOF 11
   INSTANCE: SZYNA2D-1                                                                       
 LARGEST INCREMENT OF TEMP.         -6.47       AT NODE        587   DOF 11
   INSTANCE: SZYNA2D-1                                                                       
 LARGEST CORRECTION TO TEMP.        0.206       AT NODE        226   DOF 11
   INSTANCE: SZYNA2D-1                                                                       
 ESTIMATE OF TEMP.    CORRECTION   -2.314E-07
 HEAT FLUX EQUILIB. ACCEPTED BASED ON SMALL RESIDUAL AND ESTIMATED CORRECTION

 MAXIMUM NON-PRESCRIBED INCREMENT IN TEMPERATURE IS   -6.47    

 ITERATION SUMMARY FOR THE INCREMENT:   1 TOTAL ITERATIONS, OF WHICH
   0 ARE SEVERE DISCONTINUITY ITERATIONS AND  1 ARE EQUILIBRIUM ITERATIONS.

 TIME INCREMENT COMPLETED   1.00    ,  FRACTION OF STEP COMPLETED  1.774E-02
 STEP TIME COMPLETED        21.3    ,  TOTAL TIME COMPLETED         21.3    


  INCREMENT    30 STARTS. ATTEMPT NUMBER  1, TIME INCREMENT   1.00    

  NUMBER OF EQUATIONS =      864     NUMBER OF FLOATING PT. OPERATIONS =  2.67E+05

     CHECK POINT   START OF SOLVER    

     CHECK POINT  END OF SOLVER       

       ELAPSED USER TIME (SEC)      =   0.0000    
       ELAPSED SYSTEM TIME (SEC)    =   0.0000    
       ELAPSED TOTAL CPU TIME (SEC) =   0.0000    
       ELAPSED WALLCLOCK TIME (SEC) =          0

               CONVERGENCE CHECKS FOR EQUILIBRIUM ITERATION     1


 AVERAGE HEAT FLUX                   202.       TIME AVG. HEAT FLUX    154.    
 LARGEST RESIDUAL HEAT FLUX        -1.277E-05   AT NODE         73   DOF 11
   INSTANCE: SZYNA2D-1                                                                       
 LARGEST INCREMENT OF TEMP.         -6.31       AT NODE        587   DOF 11
   INSTANCE: SZYNA2D-1                                                                       
 LARGEST CORRECTION TO TEMP.        0.189       AT NODE        226   DOF 11
   INSTANCE: SZYNA2D-1                                                                       
 ESTIMATE OF TEMP.    CORRECTION   -1.919E-07
 HEAT FLUX EQUILIB. ACCEPTED BASED ON SMALL RESIDUAL AND ESTIMATED CORRECTION

 MAXIMUM NON-PRESCRIBED INCREMENT IN TEMPERATURE IS   -6.31    

 ITERATION SUMMARY FOR THE INCREMENT:   1 TOTAL ITERATIONS, OF WHICH
   0 ARE SEVERE DISCONTINUITY ITERATIONS AND  1 ARE EQUILIBRIUM ITERATIONS.

 TIME INCREMENT COMPLETED   1.00    ,  FRACTION OF STEP COMPLETED  1.857E-02
 STEP TIME COMPLETED        22.3    ,  TOTAL TIME COMPLETED         22.3    


  INCREMENT    31 STARTS. ATTEMPT NUMBER  1, TIME INCREMENT   1.00    

  NUMBER OF EQUATIONS =      864     NUMBER OF FLOATING PT. OPERATIONS =  2.67E+05

     CHECK POINT   START OF SOLVER    

     CHECK POINT  END OF SOLVER       

       ELAPSED USER TIME (SEC)      =   0.0000    
       ELAPSED SYSTEM TIME (SEC)    =   0.0000    
       ELAPSED TOTAL CPU TIME (SEC) =   0.0000    
       ELAPSED WALLCLOCK TIME (SEC) =          0

               CONVERGENCE CHECKS FOR EQUILIBRIUM ITERATION     1


 AVERAGE HEAT FLUX                   203.       TIME AVG. HEAT FLUX    156.    
 LARGEST RESIDUAL HEAT FLUX        -1.073E-05   AT NODE         73   DOF 11
   INSTANCE: SZYNA2D-1                                                                       
 LARGEST INCREMENT OF TEMP.         -6.16       AT NODE        587   DOF 11
   INSTANCE: SZYNA2D-1                                                                       
 LARGEST CORRECTION TO TEMP.        0.175       AT NODE        226   DOF 11
   INSTANCE: SZYNA2D-1                                                                       
 ESTIMATE OF TEMP.    CORRECTION   -1.603E-07
 HEAT FLUX EQUILIB. ACCEPTED BASED ON SMALL RESIDUAL AND ESTIMATED CORRECTION

 MAXIMUM NON-PRESCRIBED INCREMENT IN TEMPERATURE IS   -6.16    

 ITERATION SUMMARY FOR THE INCREMENT:   1 TOTAL ITERATIONS, OF WHICH
   0 ARE SEVERE DISCONTINUITY ITERATIONS AND  1 ARE EQUILIBRIUM ITERATIONS.

 TIME INCREMENT COMPLETED   1.00    ,  FRACTION OF STEP COMPLETED  1.941E-02
 STEP TIME COMPLETED        23.3    ,  TOTAL TIME COMPLETED         23.3    


  INCREMENT    32 STARTS. ATTEMPT NUMBER  1, TIME INCREMENT   1.00    

  NUMBER OF EQUATIONS =      864     NUMBER OF FLOATING PT. OPERATIONS =  2.67E+05

     CHECK POINT   START OF SOLVER    

     CHECK POINT  END OF SOLVER       

       ELAPSED USER TIME (SEC)      =   0.0000    
       ELAPSED SYSTEM TIME (SEC)    =   0.0000    
       ELAPSED TOTAL CPU TIME (SEC) =   0.0000    
       ELAPSED WALLCLOCK TIME (SEC) =          0

               CONVERGENCE CHECKS FOR EQUILIBRIUM ITERATION     1


 AVERAGE HEAT FLUX                   203.       TIME AVG. HEAT FLUX    157.    
 LARGEST RESIDUAL HEAT FLUX        -9.068E-06   AT NODE         73   DOF 11
   INSTANCE: SZYNA2D-1                                                                       
 LARGEST INCREMENT OF TEMP.         -6.03       AT NODE        747   DOF 11
   INSTANCE: SZYNA2D-1                                                                       
 LARGEST CORRECTION TO TEMP.        0.162       AT NODE        226   DOF 11
   INSTANCE: SZYNA2D-1                                                                       
 ESTIMATE OF TEMP.    CORRECTION   -1.349E-07
 HEAT FLUX EQUILIB. ACCEPTED BASED ON SMALL RESIDUAL AND ESTIMATED CORRECTION

 MAXIMUM NON-PRESCRIBED INCREMENT IN TEMPERATURE IS   -6.03    

 ITERATION SUMMARY FOR THE INCREMENT:   1 TOTAL ITERATIONS, OF WHICH
   0 ARE SEVERE DISCONTINUITY ITERATIONS AND  1 ARE EQUILIBRIUM ITERATIONS.

 TIME INCREMENT COMPLETED   1.00    ,  FRACTION OF STEP COMPLETED  2.024E-02
 STEP TIME COMPLETED        24.3    ,  TOTAL TIME COMPLETED         24.3    


  INCREMENT    33 STARTS. ATTEMPT NUMBER  1, TIME INCREMENT   1.00    

  NUMBER OF EQUATIONS =      864     NUMBER OF FLOATING PT. OPERATIONS =  2.67E+05

     CHECK POINT   START OF SOLVER    

     CHECK POINT  END OF SOLVER       

       ELAPSED USER TIME (SEC)      =   0.0000    
       ELAPSED SYSTEM TIME (SEC)    =   0.0000    
       ELAPSED TOTAL CPU TIME (SEC) =   0.0000    
       ELAPSED WALLCLOCK TIME (SEC) =          0

               CONVERGENCE CHECKS FOR EQUILIBRIUM ITERATION     1


 AVERAGE HEAT FLUX                   204.       TIME AVG. HEAT FLUX    159.    
 LARGEST RESIDUAL HEAT FLUX        -7.721E-06   AT NODE         72   DOF 11
   INSTANCE: SZYNA2D-1                                                                       
 LARGEST INCREMENT OF TEMP.         -5.91       AT NODE        704   DOF 11
   INSTANCE: SZYNA2D-1                                                                       
 LARGEST CORRECTION TO TEMP.        0.151       AT NODE        816   DOF 11
   INSTANCE: SZYNA2D-1                                                                       
 ESTIMATE OF TEMP.    CORRECTION   -1.144E-07
 HEAT FLUX EQUILIB. ACCEPTED BASED ON SMALL RESIDUAL AND ESTIMATED CORRECTION

 MAXIMUM NON-PRESCRIBED INCREMENT IN TEMPERATURE IS   -5.91    

 ITERATION SUMMARY FOR THE INCREMENT:   1 TOTAL ITERATIONS, OF WHICH
   0 ARE SEVERE DISCONTINUITY ITERATIONS AND  1 ARE EQUILIBRIUM ITERATIONS.

 TIME INCREMENT COMPLETED   1.00    ,  FRACTION OF STEP COMPLETED  2.107E-02
 STEP TIME COMPLETED        25.3    ,  TOTAL TIME COMPLETED         25.3    


  INCREMENT    34 STARTS. ATTEMPT NUMBER  1, TIME INCREMENT   1.00    

  NUMBER OF EQUATIONS =      864     NUMBER OF FLOATING PT. OPERATIONS =  2.67E+05

     CHECK POINT   START OF SOLVER    

     CHECK POINT  END OF SOLVER       

       ELAPSED USER TIME (SEC)      =   0.0000    
       ELAPSED SYSTEM TIME (SEC)    =   0.0000    
       ELAPSED TOTAL CPU TIME (SEC) =   0.0000    
       ELAPSED WALLCLOCK TIME (SEC) =          0

               CONVERGENCE CHECKS FOR EQUILIBRIUM ITERATION     1


 AVERAGE HEAT FLUX                   204.       TIME AVG. HEAT FLUX    160.    
 LARGEST RESIDUAL HEAT FLUX        -6.624E-06   AT NODE         72   DOF 11
   INSTANCE: SZYNA2D-1                                                                       
 LARGEST INCREMENT OF TEMP.         -5.81       AT NODE        213   DOF 11
   INSTANCE: SZYNA2D-1                                                                       
 LARGEST CORRECTION TO TEMP.        0.141       AT NODE        816   DOF 11
   INSTANCE: SZYNA2D-1                                                                       
 ESTIMATE OF TEMP.    CORRECTION   -9.799E-08
 HEAT FLUX EQUILIB. ACCEPTED BASED ON SMALL RESIDUAL AND ESTIMATED CORRECTION

 MAXIMUM NON-PRESCRIBED INCREMENT IN TEMPERATURE IS   -5.81    

 ITERATION SUMMARY FOR THE INCREMENT:   1 TOTAL ITERATIONS, OF WHICH
   0 ARE SEVERE DISCONTINUITY ITERATIONS AND  1 ARE EQUILIBRIUM ITERATIONS.

 TIME INCREMENT COMPLETED   1.00    ,  FRACTION OF STEP COMPLETED  2.191E-02
 STEP TIME COMPLETED        26.3    ,  TOTAL TIME COMPLETED         26.3    


  INCREMENT    35 STARTS. ATTEMPT NUMBER  1, TIME INCREMENT   1.00    

  NUMBER OF EQUATIONS =      864     NUMBER OF FLOATING PT. OPERATIONS =  2.67E+05

     CHECK POINT   START OF SOLVER    

     CHECK POINT  END OF SOLVER       

       ELAPSED USER TIME (SEC)      =   0.0000    
       ELAPSED SYSTEM TIME (SEC)    =   0.0000    
       ELAPSED TOTAL CPU TIME (SEC) =   0.0000    
       ELAPSED WALLCLOCK TIME (SEC) =          0

               CONVERGENCE CHECKS FOR EQUILIBRIUM ITERATION     1


 AVERAGE HEAT FLUX                   204.       TIME AVG. HEAT FLUX    161.    
 LARGEST RESIDUAL HEAT FLUX        -5.717E-06   AT NODE         72   DOF 11
   INSTANCE: SZYNA2D-1                                                                       
 LARGEST INCREMENT OF TEMP.         -5.71       AT NODE        213   DOF 11
   INSTANCE: SZYNA2D-1                                                                       
 LARGEST CORRECTION TO TEMP.        0.132       AT NODE        816   DOF 11
   INSTANCE: SZYNA2D-1                                                                       
 ESTIMATE OF TEMP.    CORRECTION   -8.442E-08
 HEAT FLUX EQUILIB. ACCEPTED BASED ON SMALL RESIDUAL AND ESTIMATED CORRECTION

 MAXIMUM NON-PRESCRIBED INCREMENT IN TEMPERATURE IS   -5.71    

 ITERATION SUMMARY FOR THE INCREMENT:   1 TOTAL ITERATIONS, OF WHICH
   0 ARE SEVERE DISCONTINUITY ITERATIONS AND  1 ARE EQUILIBRIUM ITERATIONS.

 TIME INCREMENT COMPLETED   1.00    ,  FRACTION OF STEP COMPLETED  2.274E-02
 STEP TIME COMPLETED        27.3    ,  TOTAL TIME COMPLETED         27.3    


  INCREMENT    36 STARTS. ATTEMPT NUMBER  1, TIME INCREMENT   1.00    

  NUMBER OF EQUATIONS =      864     NUMBER OF FLOATING PT. OPERATIONS =  2.67E+05

     CHECK POINT   START OF SOLVER    

     CHECK POINT  END OF SOLVER       

       ELAPSED USER TIME (SEC)      =   0.0000    
       ELAPSED SYSTEM TIME (SEC)    =   0.0000    
       ELAPSED TOTAL CPU TIME (SEC) =   0.0000    
       ELAPSED WALLCLOCK TIME (SEC) =          0

               CONVERGENCE CHECKS FOR EQUILIBRIUM ITERATION     1


 AVERAGE HEAT FLUX                   204.       TIME AVG. HEAT FLUX    162.    
 LARGEST RESIDUAL HEAT FLUX        -4.973E-06   AT NODE         62   DOF 11
   INSTANCE: SZYNA2D-1                                                                       
 LARGEST INCREMENT OF TEMP.         -5.62       AT NODE        695   DOF 11
   INSTANCE: SZYNA2D-1                                                                       
 LARGEST CORRECTION TO TEMP.        0.124       AT NODE        816   DOF 11
   INSTANCE: SZYNA2D-1                                                                       
 ESTIMATE OF TEMP.    CORRECTION   -7.330E-08
 HEAT FLUX EQUILIB. ACCEPTED BASED ON SMALL RESIDUAL AND ESTIMATED CORRECTION

 MAXIMUM NON-PRESCRIBED INCREMENT IN TEMPERATURE IS   -5.62    

 ITERATION SUMMARY FOR THE INCREMENT:   1 TOTAL ITERATIONS, OF WHICH
   0 ARE SEVERE DISCONTINUITY ITERATIONS AND  1 ARE EQUILIBRIUM ITERATIONS.

 TIME INCREMENT COMPLETED   1.00    ,  FRACTION OF STEP COMPLETED  2.357E-02
 STEP TIME COMPLETED        28.3    ,  TOTAL TIME COMPLETED         28.3    


  INCREMENT    37 STARTS. ATTEMPT NUMBER  1, TIME INCREMENT   1.00    

  NUMBER OF EQUATIONS =      864     NUMBER OF FLOATING PT. OPERATIONS =  2.67E+05

     CHECK POINT   START OF SOLVER    

     CHECK POINT  END OF SOLVER       

       ELAPSED USER TIME (SEC)      =   0.0000    
       ELAPSED SYSTEM TIME (SEC)    =   0.0000    
       ELAPSED TOTAL CPU TIME (SEC) =   0.0000    
       ELAPSED WALLCLOCK TIME (SEC) =          0

               CONVERGENCE CHECKS FOR EQUILIBRIUM ITERATION     1


 AVERAGE HEAT FLUX                   205.       TIME AVG. HEAT FLUX    164.    
 LARGEST RESIDUAL HEAT FLUX        -4.375E-06   AT NODE         62   DOF 11
   INSTANCE: SZYNA2D-1                                                                       
 LARGEST INCREMENT OF TEMP.         -5.53       AT NODE        212   DOF 11
   INSTANCE: SZYNA2D-1                                                                       
 LARGEST CORRECTION TO TEMP.        0.117       AT NODE        816   DOF 11
   INSTANCE: SZYNA2D-1                                                                       
 ESTIMATE OF TEMP.    CORRECTION   -6.438E-08
 HEAT FLUX EQUILIB. ACCEPTED BASED ON SMALL RESIDUAL AND ESTIMATED CORRECTION

 MAXIMUM NON-PRESCRIBED INCREMENT IN TEMPERATURE IS   -5.53    

 ITERATION SUMMARY FOR THE INCREMENT:   1 TOTAL ITERATIONS, OF WHICH
   0 ARE SEVERE DISCONTINUITY ITERATIONS AND  1 ARE EQUILIBRIUM ITERATIONS.

 TIME INCREMENT COMPLETED   1.00    ,  FRACTION OF STEP COMPLETED  2.441E-02
 STEP TIME COMPLETED        29.3    ,  TOTAL TIME COMPLETED         29.3    


  INCREMENT    38 STARTS. ATTEMPT NUMBER  1, TIME INCREMENT   1.00    

  NUMBER OF EQUATIONS =      864     NUMBER OF FLOATING PT. OPERATIONS =  2.67E+05

     CHECK POINT   START OF SOLVER    

     CHECK POINT  END OF SOLVER       

       ELAPSED USER TIME (SEC)      =   0.0000    
       ELAPSED SYSTEM TIME (SEC)    =   0.0000    
       ELAPSED TOTAL CPU TIME (SEC) =   0.0000    
       ELAPSED WALLCLOCK TIME (SEC) =          0

               CONVERGENCE CHECKS FOR EQUILIBRIUM ITERATION     1


 AVERAGE HEAT FLUX                   205.       TIME AVG. HEAT FLUX    165.    
 LARGEST RESIDUAL HEAT FLUX        -3.867E-06   AT NODE         62   DOF 11
   INSTANCE: SZYNA2D-1                                                                       
 LARGEST INCREMENT OF TEMP.         -5.45       AT NODE        696   DOF 11
   INSTANCE: SZYNA2D-1                                                                       
 LARGEST CORRECTION TO TEMP.        0.110       AT NODE        485   DOF 11
   INSTANCE: SZYNA2D-1                                                                       
 ESTIMATE OF TEMP.    CORRECTION   -5.686E-08
 HEAT FLUX EQUILIB. ACCEPTED BASED ON SMALL RESIDUAL AND ESTIMATED CORRECTION

 MAXIMUM NON-PRESCRIBED INCREMENT IN TEMPERATURE IS   -5.45    

 ITERATION SUMMARY FOR THE INCREMENT:   1 TOTAL ITERATIONS, OF WHICH
   0 ARE SEVERE DISCONTINUITY ITERATIONS AND  1 ARE EQUILIBRIUM ITERATIONS.

 TIME INCREMENT COMPLETED   1.00    ,  FRACTION OF STEP COMPLETED  2.524E-02
 STEP TIME COMPLETED        30.3    ,  TOTAL TIME COMPLETED         30.3    


  INCREMENT    39 STARTS. ATTEMPT NUMBER  1, TIME INCREMENT   1.00    

  NUMBER OF EQUATIONS =      864     NUMBER OF FLOATING PT. OPERATIONS =  2.67E+05

     CHECK POINT   START OF SOLVER    

     CHECK POINT  END OF SOLVER       

       ELAPSED USER TIME (SEC)      =   0.0000    
       ELAPSED SYSTEM TIME (SEC)    =   0.0000    
       ELAPSED TOTAL CPU TIME (SEC) =   0.0000    
       ELAPSED WALLCLOCK TIME (SEC) =          0

               CONVERGENCE CHECKS FOR EQUILIBRIUM ITERATION     1


 AVERAGE HEAT FLUX                   205.       TIME AVG. HEAT FLUX    166.    
 LARGEST RESIDUAL HEAT FLUX        -3.451E-06   AT NODE        284   DOF 11
   INSTANCE: SZYNA2D-1                                                                       
 LARGEST INCREMENT OF TEMP.         -5.37       AT NODE        696   DOF 11
   INSTANCE: SZYNA2D-1                                                                       
 LARGEST CORRECTION TO TEMP.        0.104       AT NODE        485   DOF 11
   INSTANCE: SZYNA2D-1                                                                       
 ESTIMATE OF TEMP.    CORRECTION   -5.073E-08
 HEAT FLUX EQUILIB. ACCEPTED BASED ON SMALL RESIDUAL AND ESTIMATED CORRECTION

 MAXIMUM NON-PRESCRIBED INCREMENT IN TEMPERATURE IS   -5.37    

 ITERATION SUMMARY FOR THE INCREMENT:   1 TOTAL ITERATIONS, OF WHICH
   0 ARE SEVERE DISCONTINUITY ITERATIONS AND  1 ARE EQUILIBRIUM ITERATIONS.

 TIME INCREMENT COMPLETED   1.00    ,  FRACTION OF STEP COMPLETED  2.608E-02
 STEP TIME COMPLETED        31.3    ,  TOTAL TIME COMPLETED         31.3    


  INCREMENT    40 STARTS. ATTEMPT NUMBER  1, TIME INCREMENT   1.00    

  NUMBER OF EQUATIONS =      864     NUMBER OF FLOATING PT. OPERATIONS =  2.67E+05

     CHECK POINT   START OF SOLVER    

     CHECK POINT  END OF SOLVER       

       ELAPSED USER TIME (SEC)      =   0.0000    
       ELAPSED SYSTEM TIME (SEC)    =   0.0000    
       ELAPSED TOTAL CPU TIME (SEC) =   0.0000    
       ELAPSED WALLCLOCK TIME (SEC) =          0

               CONVERGENCE CHECKS FOR EQUILIBRIUM ITERATION     1


 AVERAGE HEAT FLUX                   205.       TIME AVG. HEAT FLUX    167.    
 LARGEST RESIDUAL HEAT FLUX        -3.094E-06   AT NODE        284   DOF 11
   INSTANCE: SZYNA2D-1                                                                       
 LARGEST INCREMENT OF TEMP.         -5.30       AT NODE        732   DOF 11
   INSTANCE: SZYNA2D-1                                                                       
 LARGEST CORRECTION TO TEMP.        9.905E-02   AT NODE        485   DOF 11
   INSTANCE: SZYNA2D-1                                                                       
 ESTIMATE OF TEMP.    CORRECTION   -4.548E-08
 HEAT FLUX EQUILIB. ACCEPTED BASED ON SMALL RESIDUAL AND ESTIMATED CORRECTION

 MAXIMUM NON-PRESCRIBED INCREMENT IN TEMPERATURE IS   -5.30    

 ITERATION SUMMARY FOR THE INCREMENT:   1 TOTAL ITERATIONS, OF WHICH
   0 ARE SEVERE DISCONTINUITY ITERATIONS AND  1 ARE EQUILIBRIUM ITERATIONS.

 TIME INCREMENT COMPLETED   1.00    ,  FRACTION OF STEP COMPLETED  2.691E-02
 STEP TIME COMPLETED        32.3    ,  TOTAL TIME COMPLETED         32.3    


  INCREMENT    41 STARTS. ATTEMPT NUMBER  1, TIME INCREMENT   1.00    

  NUMBER OF EQUATIONS =      864     NUMBER OF FLOATING PT. OPERATIONS =  2.67E+05

     CHECK POINT   START OF SOLVER    

     CHECK POINT  END OF SOLVER       

       ELAPSED USER TIME (SEC)      =   0.0000    
       ELAPSED SYSTEM TIME (SEC)    =   0.0000    
       ELAPSED TOTAL CPU TIME (SEC) =   0.0000    
       ELAPSED WALLCLOCK TIME (SEC) =          0

               CONVERGENCE CHECKS FOR EQUILIBRIUM ITERATION     1


 AVERAGE HEAT FLUX                   205.       TIME AVG. HEAT FLUX    168.    
 LARGEST RESIDUAL HEAT FLUX        -2.784E-06   AT NODE        284   DOF 11
   INSTANCE: SZYNA2D-1                                                                       
 LARGEST INCREMENT OF TEMP.         -5.23       AT NODE        732   DOF 11
   INSTANCE: SZYNA2D-1                                                                       
 LARGEST CORRECTION TO TEMP.        9.435E-02   AT NODE        218   DOF 11
   INSTANCE: SZYNA2D-1                                                                       
 ESTIMATE OF TEMP.    CORRECTION   -4.098E-08
 HEAT FLUX EQUILIB. ACCEPTED BASED ON SMALL RESIDUAL AND ESTIMATED CORRECTION

 MAXIMUM NON-PRESCRIBED INCREMENT IN TEMPERATURE IS   -5.23    

 ITERATION SUMMARY FOR THE INCREMENT:   1 TOTAL ITERATIONS, OF WHICH
   0 ARE SEVERE DISCONTINUITY ITERATIONS AND  1 ARE EQUILIBRIUM ITERATIONS.

 TIME INCREMENT COMPLETED   1.00    ,  FRACTION OF STEP COMPLETED  2.774E-02
 STEP TIME COMPLETED        33.3    ,  TOTAL TIME COMPLETED         33.3    


  INCREMENT    42 STARTS. ATTEMPT NUMBER  1, TIME INCREMENT   1.00    

  NUMBER OF EQUATIONS =      864     NUMBER OF FLOATING PT. OPERATIONS =  2.67E+05

     CHECK POINT   START OF SOLVER    

     CHECK POINT  END OF SOLVER       

       ELAPSED USER TIME (SEC)      =   0.0000    
       ELAPSED SYSTEM TIME (SEC)    =   0.0000    
       ELAPSED TOTAL CPU TIME (SEC) =   0.0000    
       ELAPSED WALLCLOCK TIME (SEC) =          0

               CONVERGENCE CHECKS FOR EQUILIBRIUM ITERATION     1


 AVERAGE HEAT FLUX                   205.       TIME AVG. HEAT FLUX    168.    
 LARGEST RESIDUAL HEAT FLUX        -2.514E-06   AT NODE        284   DOF 11
   INSTANCE: SZYNA2D-1                                                                       
 LARGEST INCREMENT OF TEMP.         -5.16       AT NODE        732   DOF 11
   INSTANCE: SZYNA2D-1                                                                       
 LARGEST CORRECTION TO TEMP.        9.007E-02   AT NODE        218   DOF 11
   INSTANCE: SZYNA2D-1                                                                       
 ESTIMATE OF TEMP.    CORRECTION   -3.707E-08
 HEAT FLUX EQUILIB. ACCEPTED BASED ON SMALL RESIDUAL AND ESTIMATED CORRECTION

 MAXIMUM NON-PRESCRIBED INCREMENT IN TEMPERATURE IS   -5.16    

 ITERATION SUMMARY FOR THE INCREMENT:   1 TOTAL ITERATIONS, OF WHICH
   0 ARE SEVERE DISCONTINUITY ITERATIONS AND  1 ARE EQUILIBRIUM ITERATIONS.

 TIME INCREMENT COMPLETED   1.00    ,  FRACTION OF STEP COMPLETED  2.857E-02
 STEP TIME COMPLETED        34.3    ,  TOTAL TIME COMPLETED         34.3    


  INCREMENT    43 STARTS. ATTEMPT NUMBER  1, TIME INCREMENT   1.00    

  NUMBER OF EQUATIONS =      864     NUMBER OF FLOATING PT. OPERATIONS =  2.67E+05

     CHECK POINT   START OF SOLVER    

     CHECK POINT  END OF SOLVER       

       ELAPSED USER TIME (SEC)      =   0.0000    
       ELAPSED SYSTEM TIME (SEC)    =   0.0000    
       ELAPSED TOTAL CPU TIME (SEC) =   0.0000    
       ELAPSED WALLCLOCK TIME (SEC) =          0

               CONVERGENCE CHECKS FOR EQUILIBRIUM ITERATION     1


 AVERAGE HEAT FLUX                   205.       TIME AVG. HEAT FLUX    169.    
 LARGEST RESIDUAL HEAT FLUX        -2.278E-06   AT NODE         65   DOF 11
   INSTANCE: SZYNA2D-1                                                                       
 LARGEST INCREMENT OF TEMP.         -5.09       AT NODE        732   DOF 11
   INSTANCE: SZYNA2D-1                                                                       
 LARGEST CORRECTION TO TEMP.        8.613E-02   AT NODE        218   DOF 11
   INSTANCE: SZYNA2D-1                                                                       
 ESTIMATE OF TEMP.    CORRECTION   -3.365E-08
 HEAT FLUX EQUILIB. ACCEPTED BASED ON SMALL RESIDUAL AND ESTIMATED CORRECTION

 MAXIMUM NON-PRESCRIBED INCREMENT IN TEMPERATURE IS   -5.09    

 ITERATION SUMMARY FOR THE INCREMENT:   1 TOTAL ITERATIONS, OF WHICH
   0 ARE SEVERE DISCONTINUITY ITERATIONS AND  1 ARE EQUILIBRIUM ITERATIONS.

 TIME INCREMENT COMPLETED   1.00    ,  FRACTION OF STEP COMPLETED  2.941E-02
 STEP TIME COMPLETED        35.3    ,  TOTAL TIME COMPLETED         35.3    


  INCREMENT    44 STARTS. ATTEMPT NUMBER  1, TIME INCREMENT   1.00    

  NUMBER OF EQUATIONS =      864     NUMBER OF FLOATING PT. OPERATIONS =  2.67E+05

     CHECK POINT   START OF SOLVER    

     CHECK POINT  END OF SOLVER       

       ELAPSED USER TIME (SEC)      =   0.0000    
       ELAPSED SYSTEM TIME (SEC)    =   0.0000    
       ELAPSED TOTAL CPU TIME (SEC) =   0.0000    
       ELAPSED WALLCLOCK TIME (SEC) =          0

               CONVERGENCE CHECKS FOR EQUILIBRIUM ITERATION     1


 AVERAGE HEAT FLUX                   205.       TIME AVG. HEAT FLUX    170.    
 LARGEST RESIDUAL HEAT FLUX        -2.081E-06   AT NODE         65   DOF 11
   INSTANCE: SZYNA2D-1                                                                       
 LARGEST INCREMENT OF TEMP.         -5.02       AT NODE        732   DOF 11
   INSTANCE: SZYNA2D-1                                                                       
 LARGEST CORRECTION TO TEMP.        8.250E-02   AT NODE        218   DOF 11
   INSTANCE: SZYNA2D-1                                                                       
 ESTIMATE OF TEMP.    CORRECTION   -3.078E-08
 HEAT FLUX EQUILIB. ACCEPTED BASED ON SMALL RESIDUAL AND ESTIMATED CORRECTION

 MAXIMUM NON-PRESCRIBED INCREMENT IN TEMPERATURE IS   -5.02    

 ITERATION SUMMARY FOR THE INCREMENT:   1 TOTAL ITERATIONS, OF WHICH
   0 ARE SEVERE DISCONTINUITY ITERATIONS AND  1 ARE EQUILIBRIUM ITERATIONS.

 TIME INCREMENT COMPLETED   1.00    ,  FRACTION OF STEP COMPLETED  3.024E-02
 STEP TIME COMPLETED        36.3    ,  TOTAL TIME COMPLETED         36.3    


  INCREMENT    45 STARTS. ATTEMPT NUMBER  1, TIME INCREMENT   1.00    

  NUMBER OF EQUATIONS =      864     NUMBER OF FLOATING PT. OPERATIONS =  2.67E+05

     CHECK POINT   START OF SOLVER    

     CHECK POINT  END OF SOLVER       

       ELAPSED USER TIME (SEC)      =   0.0000    
       ELAPSED SYSTEM TIME (SEC)    =   0.0000    
       ELAPSED TOTAL CPU TIME (SEC) =   0.0000    
       ELAPSED WALLCLOCK TIME (SEC) =          0

               CONVERGENCE CHECKS FOR EQUILIBRIUM ITERATION     1


 AVERAGE HEAT FLUX                   205.       TIME AVG. HEAT FLUX    171.    
 LARGEST RESIDUAL HEAT FLUX        -1.905E-06   AT NODE         65   DOF 11
   INSTANCE: SZYNA2D-1                                                                       
 LARGEST INCREMENT OF TEMP.         -4.95       AT NODE        732   DOF 11
   INSTANCE: SZYNA2D-1                                                                       
 LARGEST CORRECTION TO TEMP.        7.913E-02   AT NODE        218   DOF 11
   INSTANCE: SZYNA2D-1                                                                       
 ESTIMATE OF TEMP.    CORRECTION   -2.822E-08
 HEAT FLUX EQUILIB. ACCEPTED BASED ON SMALL RESIDUAL AND ESTIMATED CORRECTION

 MAXIMUM NON-PRESCRIBED INCREMENT IN TEMPERATURE IS   -4.95    

 ITERATION SUMMARY FOR THE INCREMENT:   1 TOTAL ITERATIONS, OF WHICH
   0 ARE SEVERE DISCONTINUITY ITERATIONS AND  1 ARE EQUILIBRIUM ITERATIONS.

 TIME INCREMENT COMPLETED   1.00    ,  FRACTION OF STEP COMPLETED  3.107E-02
 STEP TIME COMPLETED        37.3    ,  TOTAL TIME COMPLETED         37.3    


  INCREMENT    46 STARTS. ATTEMPT NUMBER  1, TIME INCREMENT   1.00    

  NUMBER OF EQUATIONS =      864     NUMBER OF FLOATING PT. OPERATIONS =  2.67E+05

     CHECK POINT   START OF SOLVER    

     CHECK POINT  END OF SOLVER       

       ELAPSED USER TIME (SEC)      =   0.0000    
       ELAPSED SYSTEM TIME (SEC)    =   0.0000    
       ELAPSED TOTAL CPU TIME (SEC) =   0.0000    
       ELAPSED WALLCLOCK TIME (SEC) =          0

               CONVERGENCE CHECKS FOR EQUILIBRIUM ITERATION     1


 AVERAGE HEAT FLUX                   205.       TIME AVG. HEAT FLUX    172.    
 LARGEST RESIDUAL HEAT FLUX        -1.751E-06   AT NODE        283   DOF 11
   INSTANCE: SZYNA2D-1                                                                       
 LARGEST INCREMENT OF TEMP.         -4.89       AT NODE        732   DOF 11
   INSTANCE: SZYNA2D-1                                                                       
 LARGEST CORRECTION TO TEMP.        7.601E-02   AT NODE        218   DOF 11
   INSTANCE: SZYNA2D-1                                                                       
 ESTIMATE OF TEMP.    CORRECTION   -2.598E-08
 HEAT FLUX EQUILIB. ACCEPTED BASED ON SMALL RESIDUAL AND ESTIMATED CORRECTION

 MAXIMUM NON-PRESCRIBED INCREMENT IN TEMPERATURE IS   -4.89    

 ITERATION SUMMARY FOR THE INCREMENT:   1 TOTAL ITERATIONS, OF WHICH
   0 ARE SEVERE DISCONTINUITY ITERATIONS AND  1 ARE EQUILIBRIUM ITERATIONS.

 TIME INCREMENT COMPLETED   1.00    ,  FRACTION OF STEP COMPLETED  3.191E-02
 STEP TIME COMPLETED        38.3    ,  TOTAL TIME COMPLETED         38.3    


  INCREMENT    47 STARTS. ATTEMPT NUMBER  1, TIME INCREMENT   1.00    

  NUMBER OF EQUATIONS =      864     NUMBER OF FLOATING PT. OPERATIONS =  2.67E+05

     CHECK POINT   START OF SOLVER    

     CHECK POINT  END OF SOLVER       

       ELAPSED USER TIME (SEC)      =   0.0000    
       ELAPSED SYSTEM TIME (SEC)    =  0.10000    
       ELAPSED TOTAL CPU TIME (SEC) =  0.10000    
       ELAPSED WALLCLOCK TIME (SEC) =          0

               CONVERGENCE CHECKS FOR EQUILIBRIUM ITERATION     1


 AVERAGE HEAT FLUX                   205.       TIME AVG. HEAT FLUX    172.    
 LARGEST RESIDUAL HEAT FLUX        -1.617E-06   AT NODE        283   DOF 11
   INSTANCE: SZYNA2D-1                                                                       
 LARGEST INCREMENT OF TEMP.         -4.83       AT NODE        768   DOF 11
   INSTANCE: SZYNA2D-1                                                                       
 LARGEST CORRECTION TO TEMP.        7.314E-02   AT NODE        558   DOF 11
[...]

 ITERATION SUMMARY FOR THE INCREMENT:   1 TOTAL ITERATIONS, OF WHICH
   0 ARE SEVERE DISCONTINUITY ITERATIONS AND  1 ARE EQUILIBRIUM ITERATIONS.

 TIME INCREMENT COMPLETED   1.00    ,  FRACTION OF STEP COMPLETED  0.990    
 STEP TIME COMPLETED       1.188E+03,  TOTAL TIME COMPLETED        1.188E+03


  INCREMENT  1197 STARTS. ATTEMPT NUMBER  1, TIME INCREMENT   1.00    

  NUMBER OF EQUATIONS =      864     NUMBER OF FLOATING PT. OPERATIONS =  2.67E+05

     CHECK POINT   START OF SOLVER    

     CHECK POINT  END OF SOLVER       

       ELAPSED USER TIME (SEC)      =   0.0000    
       ELAPSED SYSTEM TIME (SEC)    =   0.0000    
       ELAPSED TOTAL CPU TIME (SEC) =   0.0000    
       ELAPSED WALLCLOCK TIME (SEC) =          0

               CONVERGENCE CHECKS FOR EQUILIBRIUM ITERATION     1


 AVERAGE HEAT FLUX                   7.71       TIME AVG. HEAT FLUX    40.4    
 LARGEST RESIDUAL HEAT FLUX         4.112E-07   AT NODE        320   DOF 11
   INSTANCE: SZYNA2D-1                                                                       
 LARGEST INCREMENT OF TEMP.        -0.142       AT NODE        840   DOF 11
   INSTANCE: SZYNA2D-1                                                                       
 LARGEST CORRECTION TO TEMP.        1.523E-04   AT NODE        124   DOF 11
   INSTANCE: SZYNA2D-1                                                                       
          THE HEAT FLUX EQUILIBRIUM EQUATIONS HAVE CONVERGED

 MAXIMUM NON-PRESCRIBED INCREMENT IN TEMPERATURE IS  -0.142    

 ITERATION SUMMARY FOR THE INCREMENT:   1 TOTAL ITERATIONS, OF WHICH
   0 ARE SEVERE DISCONTINUITY ITERATIONS AND  1 ARE EQUILIBRIUM ITERATIONS.

 TIME INCREMENT COMPLETED   1.00    ,  FRACTION OF STEP COMPLETED  0.991    
 STEP TIME COMPLETED       1.189E+03,  TOTAL TIME COMPLETED        1.189E+03


  INCREMENT  1198 STARTS. ATTEMPT NUMBER  1, TIME INCREMENT   1.00    

  NUMBER OF EQUATIONS =      864     NUMBER OF FLOATING PT. OPERATIONS =  2.67E+05

     CHECK POINT   START OF SOLVER    

     CHECK POINT  END OF SOLVER       

       ELAPSED USER TIME (SEC)      =   0.0000    
       ELAPSED SYSTEM TIME (SEC)    =   0.0000    
       ELAPSED TOTAL CPU TIME (SEC) =   0.0000    
       ELAPSED WALLCLOCK TIME (SEC) =          0

               CONVERGENCE CHECKS FOR EQUILIBRIUM ITERATION     1


 AVERAGE HEAT FLUX                   7.72       TIME AVG. HEAT FLUX    40.3    
 LARGEST RESIDUAL HEAT FLUX        -1.347E-11   AT NODE        325   DOF 11
   INSTANCE: SZYNA2D-1                                                                       
 LARGEST INCREMENT OF TEMP.        -0.142       AT NODE        840   DOF 11
   INSTANCE: SZYNA2D-1                                                                       
 LARGEST CORRECTION TO TEMP.        1.520E-04   AT NODE        124   DOF 11
   INSTANCE: SZYNA2D-1                                                                       
          THE HEAT FLUX EQUILIBRIUM RESPONSE WAS LINEAR IN THIS INCREMENT

 MAXIMUM NON-PRESCRIBED INCREMENT IN TEMPERATURE IS  -0.142    

 ITERATION SUMMARY FOR THE INCREMENT:   1 TOTAL ITERATIONS, OF WHICH
   0 ARE SEVERE DISCONTINUITY ITERATIONS AND  1 ARE EQUILIBRIUM ITERATIONS.

 TIME INCREMENT COMPLETED   1.00    ,  FRACTION OF STEP COMPLETED  0.992    
 STEP TIME COMPLETED       1.190E+03,  TOTAL TIME COMPLETED        1.190E+03


  INCREMENT  1199 STARTS. ATTEMPT NUMBER  1, TIME INCREMENT   1.00    

  NUMBER OF EQUATIONS =      864     NUMBER OF FLOATING PT. OPERATIONS =  2.67E+05

     CHECK POINT   START OF SOLVER    

     CHECK POINT  END OF SOLVER       

       ELAPSED USER TIME (SEC)      =   0.0000    
       ELAPSED SYSTEM TIME (SEC)    =   0.0000    
       ELAPSED TOTAL CPU TIME (SEC) =   0.0000    
       ELAPSED WALLCLOCK TIME (SEC) =          0

               CONVERGENCE CHECKS FOR EQUILIBRIUM ITERATION     1


 AVERAGE HEAT FLUX                   7.72       TIME AVG. HEAT FLUX    40.3    
 LARGEST RESIDUAL HEAT FLUX         8.022E-09   AT NODE        320   DOF 11
   INSTANCE: SZYNA2D-1                                                                       
 LARGEST INCREMENT OF TEMP.        -0.142       AT NODE        744   DOF 11
   INSTANCE: SZYNA2D-1                                                                       
 LARGEST CORRECTION TO TEMP.        1.517E-04   AT NODE        124   DOF 11
   INSTANCE: SZYNA2D-1                                                                       
          THE HEAT FLUX EQUILIBRIUM RESPONSE WAS LINEAR IN THIS INCREMENT

 MAXIMUM NON-PRESCRIBED INCREMENT IN TEMPERATURE IS  -0.142    

 ITERATION SUMMARY FOR THE INCREMENT:   1 TOTAL ITERATIONS, OF WHICH
   0 ARE SEVERE DISCONTINUITY ITERATIONS AND  1 ARE EQUILIBRIUM ITERATIONS.

 TIME INCREMENT COMPLETED   1.00    ,  FRACTION OF STEP COMPLETED  0.993    
 STEP TIME COMPLETED       1.191E+03,  TOTAL TIME COMPLETED        1.191E+03


  INCREMENT  1200 STARTS. ATTEMPT NUMBER  1, TIME INCREMENT   1.00    

  NUMBER OF EQUATIONS =      864     NUMBER OF FLOATING PT. OPERATIONS =  2.67E+05

     CHECK POINT   START OF SOLVER    

     CHECK POINT  END OF SOLVER       

       ELAPSED USER TIME (SEC)      =   0.0000    
       ELAPSED SYSTEM TIME (SEC)    =   0.0000    
       ELAPSED TOTAL CPU TIME (SEC) =   0.0000    
       ELAPSED WALLCLOCK TIME (SEC) =          0

               CONVERGENCE CHECKS FOR EQUILIBRIUM ITERATION     1


 AVERAGE HEAT FLUX                   7.72       TIME AVG. HEAT FLUX    40.3    
 LARGEST RESIDUAL HEAT FLUX         1.599E-08   AT NODE        249   DOF 11
   INSTANCE: SZYNA2D-1                                                                       
 LARGEST INCREMENT OF TEMP.        -0.142       AT NODE        744   DOF 11
   INSTANCE: SZYNA2D-1                                                                       
 LARGEST CORRECTION TO TEMP.        1.514E-04   AT NODE        124   DOF 11
   INSTANCE: SZYNA2D-1                                                                       
          THE HEAT FLUX EQUILIBRIUM RESPONSE WAS LINEAR IN THIS INCREMENT

 MAXIMUM NON-PRESCRIBED INCREMENT IN TEMPERATURE IS  -0.142    

 ITERATION SUMMARY FOR THE INCREMENT:   1 TOTAL ITERATIONS, OF WHICH
   0 ARE SEVERE DISCONTINUITY ITERATIONS AND  1 ARE EQUILIBRIUM ITERATIONS.

 TIME INCREMENT COMPLETED   1.00    ,  FRACTION OF STEP COMPLETED  0.994    
 STEP TIME COMPLETED       1.192E+03,  TOTAL TIME COMPLETED        1.192E+03


  INCREMENT  1201 STARTS. ATTEMPT NUMBER  1, TIME INCREMENT   1.00    

  NUMBER OF EQUATIONS =      864     NUMBER OF FLOATING PT. OPERATIONS =  2.67E+05

     CHECK POINT   START OF SOLVER    

     CHECK POINT  END OF SOLVER       

       ELAPSED USER TIME (SEC)      =  0.10000    
       ELAPSED SYSTEM TIME (SEC)    =   0.0000    
       ELAPSED TOTAL CPU TIME (SEC) =  0.10000    
       ELAPSED WALLCLOCK TIME (SEC) =          0

               CONVERGENCE CHECKS FOR EQUILIBRIUM ITERATION     1


 AVERAGE HEAT FLUX                   7.72       TIME AVG. HEAT FLUX    40.3    
 LARGEST RESIDUAL HEAT FLUX         2.391E-08   AT NODE        320   DOF 11
   INSTANCE: SZYNA2D-1                                                                       
 LARGEST INCREMENT OF TEMP.        -0.142       AT NODE        744   DOF 11
   INSTANCE: SZYNA2D-1                                                                       
 LARGEST CORRECTION TO TEMP.        1.511E-04   AT NODE        124   DOF 11
   INSTANCE: SZYNA2D-1                                                                       
          THE HEAT FLUX EQUILIBRIUM RESPONSE WAS LINEAR IN THIS INCREMENT

 MAXIMUM NON-PRESCRIBED INCREMENT IN TEMPERATURE IS  -0.142    

 ITERATION SUMMARY FOR THE INCREMENT:   1 TOTAL ITERATIONS, OF WHICH
   0 ARE SEVERE DISCONTINUITY ITERATIONS AND  1 ARE EQUILIBRIUM ITERATIONS.

 TIME INCREMENT COMPLETED   1.00    ,  FRACTION OF STEP COMPLETED  0.994    
 STEP TIME COMPLETED       1.193E+03,  TOTAL TIME COMPLETED        1.193E+03


  INCREMENT  1202 STARTS. ATTEMPT NUMBER  1, TIME INCREMENT   1.00    

  NUMBER OF EQUATIONS =      864     NUMBER OF FLOATING PT. OPERATIONS =  2.67E+05

     CHECK POINT   START OF SOLVER    

     CHECK POINT  END OF SOLVER       

       ELAPSED USER TIME (SEC)      =   0.0000    
       ELAPSED SYSTEM TIME (SEC)    =   0.0000    
       ELAPSED TOTAL CPU TIME (SEC) =   0.0000    
       ELAPSED WALLCLOCK TIME (SEC) =          0

               CONVERGENCE CHECKS FOR EQUILIBRIUM ITERATION     1


 AVERAGE HEAT FLUX                   7.72       TIME AVG. HEAT FLUX    40.2    
 LARGEST RESIDUAL HEAT FLUX         3.180E-08   AT NODE        320   DOF 11
   INSTANCE: SZYNA2D-1                                                                       
 LARGEST INCREMENT OF TEMP.        -0.142       AT NODE        744   DOF 11
   INSTANCE: SZYNA2D-1                                                                       
 LARGEST CORRECTION TO TEMP.        1.508E-04   AT NODE        124   DOF 11
   INSTANCE: SZYNA2D-1                                                                       
          THE HEAT FLUX EQUILIBRIUM RESPONSE WAS LINEAR IN THIS INCREMENT

 MAXIMUM NON-PRESCRIBED INCREMENT IN TEMPERATURE IS  -0.142    

 ITERATION SUMMARY FOR THE INCREMENT:   1 TOTAL ITERATIONS, OF WHICH
   0 ARE SEVERE DISCONTINUITY ITERATIONS AND  1 ARE EQUILIBRIUM ITERATIONS.

 TIME INCREMENT COMPLETED   1.00    ,  FRACTION OF STEP COMPLETED  0.995    
 STEP TIME COMPLETED       1.194E+03,  TOTAL TIME COMPLETED        1.194E+03


  INCREMENT  1203 STARTS. ATTEMPT NUMBER  1, TIME INCREMENT   1.00    

  NUMBER OF EQUATIONS =      864     NUMBER OF FLOATING PT. OPERATIONS =  2.67E+05

     CHECK POINT   START OF SOLVER    

     CHECK POINT  END OF SOLVER       

       ELAPSED USER TIME (SEC)      =   0.0000    
       ELAPSED SYSTEM TIME (SEC)    =   0.0000    
       ELAPSED TOTAL CPU TIME (SEC) =   0.0000    
       ELAPSED WALLCLOCK TIME (SEC) =          0

               CONVERGENCE CHECKS FOR EQUILIBRIUM ITERATION     1


 AVERAGE HEAT FLUX                   7.72       TIME AVG. HEAT FLUX    40.2    
 LARGEST RESIDUAL HEAT FLUX         3.964E-08   AT NODE        320   DOF 11
   INSTANCE: SZYNA2D-1                                                                       
 LARGEST INCREMENT OF TEMP.        -0.142       AT NODE        744   DOF 11
   INSTANCE: SZYNA2D-1                                                                       
 LARGEST CORRECTION TO TEMP.        1.505E-04   AT NODE        124   DOF 11
   INSTANCE: SZYNA2D-1                                                                       
          THE HEAT FLUX EQUILIBRIUM RESPONSE WAS LINEAR IN THIS INCREMENT

 MAXIMUM NON-PRESCRIBED INCREMENT IN TEMPERATURE IS  -0.142    

 ITERATION SUMMARY FOR THE INCREMENT:   1 TOTAL ITERATIONS, OF WHICH
   0 ARE SEVERE DISCONTINUITY ITERATIONS AND  1 ARE EQUILIBRIUM ITERATIONS.

 TIME INCREMENT COMPLETED   1.00    ,  FRACTION OF STEP COMPLETED  0.996    
 STEP TIME COMPLETED       1.195E+03,  TOTAL TIME COMPLETED        1.195E+03


  INCREMENT  1204 STARTS. ATTEMPT NUMBER  1, TIME INCREMENT   1.00    

  NUMBER OF EQUATIONS =      864     NUMBER OF FLOATING PT. OPERATIONS =  2.67E+05

     CHECK POINT   START OF SOLVER    

     CHECK POINT  END OF SOLVER       

       ELAPSED USER TIME (SEC)      =   0.0000    
       ELAPSED SYSTEM TIME (SEC)    =   0.0000    
       ELAPSED TOTAL CPU TIME (SEC) =   0.0000    
       ELAPSED WALLCLOCK TIME (SEC) =          0

               CONVERGENCE CHECKS FOR EQUILIBRIUM ITERATION     1


 AVERAGE HEAT FLUX                   7.72       TIME AVG. HEAT FLUX    40.2    
 LARGEST RESIDUAL HEAT FLUX         4.744E-08   AT NODE        320   DOF 11
   INSTANCE: SZYNA2D-1                                                                       
 LARGEST INCREMENT OF TEMP.        -0.141       AT NODE        744   DOF 11
   INSTANCE: SZYNA2D-1                                                                       
 LARGEST CORRECTION TO TEMP.        1.502E-04   AT NODE        124   DOF 11
   INSTANCE: SZYNA2D-1                                                                       
          THE HEAT FLUX EQUILIBRIUM RESPONSE WAS LINEAR IN THIS INCREMENT

 MAXIMUM NON-PRESCRIBED INCREMENT IN TEMPERATURE IS  -0.141    

 ITERATION SUMMARY FOR THE INCREMENT:   1 TOTAL ITERATIONS, OF WHICH
   0 ARE SEVERE DISCONTINUITY ITERATIONS AND  1 ARE EQUILIBRIUM ITERATIONS.

 TIME INCREMENT COMPLETED   1.00    ,  FRACTION OF STEP COMPLETED  0.997    
 STEP TIME COMPLETED       1.196E+03,  TOTAL TIME COMPLETED        1.196E+03


  INCREMENT  1205 STARTS. ATTEMPT NUMBER  1, TIME INCREMENT   1.00    

  NUMBER OF EQUATIONS =      864     NUMBER OF FLOATING PT. OPERATIONS =  2.67E+05

     CHECK POINT   START OF SOLVER    

     CHECK POINT  END OF SOLVER       

       ELAPSED USER TIME (SEC)      =   0.0000    
       ELAPSED SYSTEM TIME (SEC)    =   0.0000    
       ELAPSED TOTAL CPU TIME (SEC) =   0.0000    
       ELAPSED WALLCLOCK TIME (SEC) =          0

               CONVERGENCE CHECKS FOR EQUILIBRIUM ITERATION     1


 AVERAGE HEAT FLUX                   7.72       TIME AVG. HEAT FLUX    40.1    
 LARGEST RESIDUAL HEAT FLUX         5.519E-08   AT NODE        320   DOF 11
   INSTANCE: SZYNA2D-1                                                                       
 LARGEST INCREMENT OF TEMP.        -0.141       AT NODE        744   DOF 11
   INSTANCE: SZYNA2D-1                                                                       
 LARGEST CORRECTION TO TEMP.        1.499E-04   AT NODE        124   DOF 11
   INSTANCE: SZYNA2D-1                                                                       
          THE HEAT FLUX EQUILIBRIUM RESPONSE WAS LINEAR IN THIS INCREMENT

 MAXIMUM NON-PRESCRIBED INCREMENT IN TEMPERATURE IS  -0.141    

 ITERATION SUMMARY FOR THE INCREMENT:   1 TOTAL ITERATIONS, OF WHICH
   0 ARE SEVERE DISCONTINUITY ITERATIONS AND  1 ARE EQUILIBRIUM ITERATIONS.

 TIME INCREMENT COMPLETED   1.00    ,  FRACTION OF STEP COMPLETED  0.998    
 STEP TIME COMPLETED       1.197E+03,  TOTAL TIME COMPLETED        1.197E+03


  INCREMENT  1206 STARTS. ATTEMPT NUMBER  1, TIME INCREMENT   1.00    

  NUMBER OF EQUATIONS =      864     NUMBER OF FLOATING PT. OPERATIONS =  2.67E+05

     CHECK POINT   START OF SOLVER    

     CHECK POINT  END OF SOLVER       

       ELAPSED USER TIME (SEC)      =   0.0000    
       ELAPSED SYSTEM TIME (SEC)    =   0.0000    
       ELAPSED TOTAL CPU TIME (SEC) =   0.0000    
       ELAPSED WALLCLOCK TIME (SEC) =          0

               CONVERGENCE CHECKS FOR EQUILIBRIUM ITERATION     1


 AVERAGE HEAT FLUX                   7.72       TIME AVG. HEAT FLUX    40.1    
 LARGEST RESIDUAL HEAT FLUX         6.291E-08   AT NODE        320   DOF 11
   INSTANCE: SZYNA2D-1                                                                       
 LARGEST INCREMENT OF TEMP.        -0.141       AT NODE        744   DOF 11
   INSTANCE: SZYNA2D-1                                                                       
 LARGEST CORRECTION TO TEMP.        1.496E-04   AT NODE        124   DOF 11
   INSTANCE: SZYNA2D-1                                                                       
          THE HEAT FLUX EQUILIBRIUM RESPONSE WAS LINEAR IN THIS INCREMENT

 MAXIMUM NON-PRESCRIBED INCREMENT IN TEMPERATURE IS  -0.141    

 ITERATION SUMMARY FOR THE INCREMENT:   1 TOTAL ITERATIONS, OF WHICH
   0 ARE SEVERE DISCONTINUITY ITERATIONS AND  1 ARE EQUILIBRIUM ITERATIONS.

 TIME INCREMENT COMPLETED   1.00    ,  FRACTION OF STEP COMPLETED  0.999    
 STEP TIME COMPLETED       1.198E+03,  TOTAL TIME COMPLETED        1.198E+03


  INCREMENT  1207 STARTS. ATTEMPT NUMBER  1, TIME INCREMENT   1.00    

  NUMBER OF EQUATIONS =      864     NUMBER OF FLOATING PT. OPERATIONS =  2.67E+05

     CHECK POINT   START OF SOLVER    

     CHECK POINT  END OF SOLVER       

       ELAPSED USER TIME (SEC)      =   0.0000    
       ELAPSED SYSTEM TIME (SEC)    =   0.0000    
       ELAPSED TOTAL CPU TIME (SEC) =   0.0000    
       ELAPSED WALLCLOCK TIME (SEC) =          0

               CONVERGENCE CHECKS FOR EQUILIBRIUM ITERATION     1


 AVERAGE HEAT FLUX                   7.72       TIME AVG. HEAT FLUX    40.1    
 LARGEST RESIDUAL HEAT FLUX         7.059E-08   AT NODE        320   DOF 11
   INSTANCE: SZYNA2D-1                                                                       
 LARGEST INCREMENT OF TEMP.        -0.141       AT NODE        744   DOF 11
   INSTANCE: SZYNA2D-1                                                                       
 LARGEST CORRECTION TO TEMP.        1.493E-04   AT NODE        124   DOF 11
   INSTANCE: SZYNA2D-1                                                                       
          THE HEAT FLUX EQUILIBRIUM RESPONSE WAS LINEAR IN THIS INCREMENT

 MAXIMUM NON-PRESCRIBED INCREMENT IN TEMPERATURE IS  -0.141    

 ITERATION SUMMARY FOR THE INCREMENT:   1 TOTAL ITERATIONS, OF WHICH
   0 ARE SEVERE DISCONTINUITY ITERATIONS AND  1 ARE EQUILIBRIUM ITERATIONS.

 TIME INCREMENT COMPLETED   1.00    ,  FRACTION OF STEP COMPLETED  0.999    
 STEP TIME COMPLETED       1.199E+03,  TOTAL TIME COMPLETED        1.199E+03


  INCREMENT  1208 STARTS. ATTEMPT NUMBER  1, TIME INCREMENT  0.710    

  NUMBER OF EQUATIONS =      864     NUMBER OF FLOATING PT. OPERATIONS =  2.67E+05

     CHECK POINT   START OF SOLVER    

     CHECK POINT  END OF SOLVER       

       ELAPSED USER TIME (SEC)      =   0.0000    
       ELAPSED SYSTEM TIME (SEC)    =   0.0000    
       ELAPSED TOTAL CPU TIME (SEC) =   0.0000    
       ELAPSED WALLCLOCK TIME (SEC) =          0

               CONVERGENCE CHECKS FOR EQUILIBRIUM ITERATION     1


 AVERAGE HEAT FLUX                   7.73       TIME AVG. HEAT FLUX    40.1    
 LARGEST RESIDUAL HEAT FLUX        -1.250E-11   AT NODE        512   DOF 11
   INSTANCE: SZYNA2D-1                                                                       
 LARGEST INCREMENT OF TEMP.        -0.100       AT NODE        744   DOF 11
   INSTANCE: SZYNA2D-1                                                                       
 LARGEST CORRECTION TO TEMP.        7.518E-05   AT NODE        124   DOF 11
   INSTANCE: SZYNA2D-1                                                                       
          THE HEAT FLUX EQUILIBRIUM RESPONSE WAS LINEAR IN THIS INCREMENT

 MAXIMUM NON-PRESCRIBED INCREMENT IN TEMPERATURE IS  -0.100    

 ITERATION SUMMARY FOR THE INCREMENT:   1 TOTAL ITERATIONS, OF WHICH
   0 ARE SEVERE DISCONTINUITY ITERATIONS AND  1 ARE EQUILIBRIUM ITERATIONS.

 TIME INCREMENT COMPLETED  0.710    ,  FRACTION OF STEP COMPLETED   1.00    
 STEP TIME COMPLETED       1.200E+03,  TOTAL TIME COMPLETED        1.200E+03


          THE ANALYSIS HAS BEEN COMPLETED



     ANALYSIS SUMMARY:
     TOTAL OF       1208  INCREMENTS
                       0  CUTBACKS IN AUTOMATIC INCREMENTATION
                    1208  ITERATIONS INCLUDING CONTACT ITERATIONS IF PRESENT
                    1208  PASSES THROUGH THE EQUATION SOLVER OF WHICH 
                     311  INVOLVE MATRIX DECOMPOSITION, INCLUDING
                       0  DECOMPOSITION(S) OF THE MASS MATRIX
                       1  REORDERING OF EQUATIONS TO MINIMIZE WAVEFRONT
                       0  ADDITIONAL RESIDUAL EVALUATIONS FOR LINE SEARCHES
                       0  ADDITIONAL OPERATOR EVALUATIONS FOR LINE SEARCHES
                       0  WARNING MESSAGES DURING USER INPUT PROCESSING
                       0  WARNING MESSAGES DURING ANALYSIS
                       0  ANALYSIS WARNINGS ARE NUMERICAL PROBLEM MESSAGES
                       0  ANALYSIS WARNINGS ARE NEGATIVE EIGENVALUE MESSAGES
                       0  ERROR MESSAGES



     JOB TIME SUMMARY
       USER TIME (SEC)      =   33.000    
       SYSTEM TIME (SEC)    =   6.1000    
       TOTAL CPU TIME (SEC) =   39.100    
       WALLCLOCK TIME (SEC) =         40
