1

   Abaqus 6.14-2                                  Date 30-maj-2018   Time 14:37:20
   

                                                                                 
 Cooling                                                                         
 STEP    1     INCREMENT     1     STEP TIME    0.00    


                        S T E P       1     T R A N S I E N T   H E A T   T R A N S F E R


          Cooling                                                                         

     AUTOMATIC TIME CONTROL WITH -
          A SUGGESTED INITIAL TIME INCREMENT OF                1.000E-02
          AND A TOTAL TIME PERIOD OF                           1.200E+03
          THE MINIMUM TIME INCREMENT ALLOWED IS                3.000E-03
          THE MAXIMUM TIME INCREMENT ALLOWED IS                 1.00    

     THE SIZE OF THE TIME INCREMENT IS CONTROLLED BY -
          THE TEMPERATURE CHANGE PER INCREMENT NOT EXCEEDING           1.000E+06

 CONVERGENCE TOLERANCE PARAMETERS FOR HEAT FLUX
     CRITERION FOR RESIDUAL HEAT FLUX FOR A NONLINEAR PROBLEM          5.000E-03
     CRITERION FOR TEMP.    CORRECTION IN A NONLINEAR PROBLEM          1.000E-02
     INITIAL VALUE OF TIME AVERAGE HEAT FLUX                           1.000E-02
     AVERAGE HEAT FLUX IS TIME AVERAGE HEAT FLUX
     ALTERNATE CRIT. FOR RESIDUAL HEAT FLUX FOR A NONLINEAR PROBLEM    2.000E-02
     CRITERION FOR ZERO HEAT FLUX RELATIVE TO TIME AVRG. HEAT FLUX     1.000E-05
     CRITERION FOR RESIDUAL HEAT FLUX WHEN THERE IS ZERO FLUX          1.000E-05
     CRITERION FOR TEMP.    CORRECTION WHEN THERE IS ZERO FLUX         1.000E-03
     CRITERION FOR RESIDUAL HEAT FLUX FOR A LINEAR INCREMENT           1.000E-08
     FIELD CONVERSION RATIO                                             1.00    
     CRITERION FOR ZERO HEAT FLUX REL. TO TIME AVRG. MAX. HEAT FLUX    1.000E-05

     VOLUMETRIC STRAIN COMPATIBILITY TOLERANCE FOR HYBRID SOLIDS       1.000E-05
     AXIAL STRAIN COMPATIBILITY TOLERANCE FOR HYBRID BEAMS             1.000E-05
     TRANS. SHEAR STRAIN COMPATIBILITY TOLERANCE FOR HYBRID BEAMS      1.000E-05
     SOFT CONTACT CONSTRAINT COMPATIBILITY TOLERANCE FOR P>P0          5.000E-03
     SOFT CONTACT CONSTRAINT COMPATIBILITY TOLERANCE FOR P=0.0         0.100    
     CONTACT FORCE ERROR TOLERANCE FOR CONVERT SDI=YES                 1.00    
     DISPLACEMENT COMPATIBILITY TOLERANCE FOR DCOUP ELEMENTS           1.000E-05
     ROTATION COMPATIBILITY TOLERANCE FOR DCOUP ELEMENTS               1.000E-05

 TIME INCREMENTATION CONTROL PARAMETERS:
     FIRST EQUILIBRIUM ITERATION FOR CONSECUTIVE DIVERGENCE CHECK              4
     EQUILIBRIUM ITERATION AT WHICH LOG. CONVERGENCE RATE CHECK BEGINS         8
     EQUILIBRIUM ITERATION AFTER WHICH ALTERNATE RESIDUAL IS USED              9
     MAXIMUM EQUILIBRIUM ITERATIONS ALLOWED                                   16
     EQUILIBRIUM ITERATION COUNT FOR CUT-BACK IN NEXT INCREMENT               10
     MAXIMUM EQUILIB. ITERS IN TWO INCREMENTS FOR TIME INCREMENT INCREASE      4
     MAXIMUM ITERATIONS FOR SEVERE DISCONTINUITIES                            12
     MAXIMUM CUT-BACKS ALLOWED IN AN INCREMENT                                 5
     MAXIMUM DISCON. ITERS IN TWO INCREMENTS FOR TIME INCREMENT INCREASE       6
     MAXIMUM CONTACT AUGMENTATIONS FOR *SURFACE BEHAVIOR,AUGMENTED LAGRANGE   50
     CONSECUTIVE INCS MEETING TIME INTEG. TOL. FOR TIME INC. INCREASE          3
     CUT-BACK FACTOR AFTER DIVERGENCE                                 0.2500    
     CUT-BACK FACTOR FOR TOO SLOW CONVERGENCE                         0.5000    
     CUT-BACK FACTOR AFTER TOO MANY EQUILIBRIUM ITERATIONS            0.7500    
     CUT-BACK FACTOR AFTER TOO MANY SEVERE DISCONTINUITY ITERATIONS   0.2500    
     CUT-BACK FACTOR AFTER PROBLEMS IN ELEMENT ASSEMBLY               0.2500    
     INCREASE FACTOR AFTER TWO INCREMENTS THAT CONVERGE QUICKLY        1.500    
     MAX. TIME INCREMENT INCREASE FACTOR ALLOWED                       1.500    
     MAX. TIME INCREMENT INCREASE FACTOR ALLOWED (DYNAMICS)            1.250    
     MAX. TIME INCREMENT INCREASE FACTOR ALLOWED (DIFFUSION)           2.000    
     MINIMUM TIME INCREMENT RATIO FOR EXTRAPOLATION TO OCCUR          0.1000    
     CUT-BACK FACTOR WHEN TIME INTEGRATION ACCURACY TOL. EXCEEDED     0.8500    
     MAX. RATIO OF TIME INTEG. MEASURE TO TOL. FOR TIME INC. INCREASE 0.7500    
     INCREASE FACTOR FOR TIME INCREMENT WHEN POSSIBLE                 0.8000    
     MIN. TIME INC. INCREASE FACTOR IN LINEAR TRANSIENT PROBLEMS      0.9500    
     MAX. RATIO OF TIME INCREMENT TO STABILITY LIMIT                   1.000    
     FRACTION OF STABILITY LIMIT FOR NEW TIME INCREMENT               0.9500    
     TIME INCREMENT INCREASE FACTOR BEFORE A TIME POINT                1.000    
     GLOBAL STABILIZATION CONTROL IS NOT USED

          PRINT OF INCREMENT NUMBER, TIME, ETC., EVERY    1  INCREMENTS

     THE MAXIMUM NUMBER OF INCREMENTS IN THIS STEP IS                   10000

     LINEAR EXTRAPOLATION WILL BE USED

     CHARACTERISTIC ELEMENT LENGTH     3.226E-03

     DETAILS REGARDING ACTUAL SOLUTION WAVEFRONT REQUESTED

     DETAILED OUTPUT OF DIAGNOSTICS TO DATABASE REQUESTED

     PRINT OF INCREMENT NUMBER, TIME, ETC., TO THE MESSAGE FILE EVERY     1  INCREMENTS

     COLLECTING MODEL CONSTRAINT INFORMATION FOR OVERCONSTRAINT CHECKS

     COLLECTING STEP CONSTRAINT INFORMATION FOR OVERCONSTRAINT CHECKS


  INCREMENT     1 STARTS. ATTEMPT NUMBER  1, TIME INCREMENT  1.000E-02

  NUMBER OF EQUATIONS =      864     NUMBER OF FLOATING PT. OPERATIONS =  2.67E+05

     CHECK POINT   START OF SOLVER    

     CHECK POINT  END OF SOLVER       

       ELAPSED USER TIME (SEC)      =   0.0000    
       ELAPSED SYSTEM TIME (SEC)    =   0.0000    
       ELAPSED TOTAL CPU TIME (SEC) =   0.0000    
       ELAPSED WALLCLOCK TIME (SEC) =          0

               CONVERGENCE CHECKS FOR EQUILIBRIUM ITERATION     1


 AVERAGE HEAT FLUX                   42.5       TIME AVG. HEAT FLUX    42.5    
 LARGEST RESIDUAL HEAT FLUX        -9.775E-04   AT NODE         58   DOF 11
   INSTANCE: SZYNA2D-1                                                                       
 LARGEST INCREMENT OF TEMP.         -1.38       AT NODE         81   DOF 11
   INSTANCE: SZYNA2D-1                                                                       
 LARGEST CORRECTION TO TEMP.        -1.38       AT NODE         81   DOF 11
   INSTANCE: SZYNA2D-1                                                                       
 ESTIMATE OF TEMP.    CORRECTION   -7.070E-07
 HEAT FLUX EQUILIB. ACCEPTED BASED ON SMALL RESIDUAL AND ESTIMATED CORRECTION

 MAXIMUM NON-PRESCRIBED INCREMENT IN TEMPERATURE IS   -1.38    

 ITERATION SUMMARY FOR THE INCREMENT:   1 TOTAL ITERATIONS, OF WHICH
   0 ARE SEVERE DISCONTINUITY ITERATIONS AND  1 ARE EQUILIBRIUM ITERATIONS.

 TIME INCREMENT COMPLETED  1.000E-02,  FRACTION OF STEP COMPLETED  8.333E-06
 STEP TIME COMPLETED       1.000E-02,  TOTAL TIME COMPLETED        1.000E-02


  INCREMENT     2 STARTS. ATTEMPT NUMBER  1, TIME INCREMENT  1.000E-02

  NUMBER OF EQUATIONS =      864     NUMBER OF FLOATING PT. OPERATIONS =  2.67E+05

     CHECK POINT   START OF SOLVER    

     CHECK POINT  END OF SOLVER       

       ELAPSED USER TIME (SEC)      =   0.0000    
       ELAPSED SYSTEM TIME (SEC)    =   0.0000    
       ELAPSED TOTAL CPU TIME (SEC) =   0.0000    
       ELAPSED WALLCLOCK TIME (SEC) =          0

               CONVERGENCE CHECKS FOR EQUILIBRIUM ITERATION     1


 AVERAGE HEAT FLUX                   72.0       TIME AVG. HEAT FLUX    57.2    
 LARGEST RESIDUAL HEAT FLUX        -3.061E-06   AT NODE         81   DOF 11
   INSTANCE: SZYNA2D-1                                                                       
 LARGEST INCREMENT OF TEMP.         -1.29       AT NODE         81   DOF 11
   INSTANCE: SZYNA2D-1                                                                       
 LARGEST CORRECTION TO TEMP.        9.207E-02   AT NODE         81   DOF 11
   INSTANCE: SZYNA2D-1                                                                       
 ESTIMATE OF TEMP.    CORRECTION   -3.172E-09
 HEAT FLUX EQUILIB. ACCEPTED BASED ON SMALL RESIDUAL AND ESTIMATED CORRECTION

 MAXIMUM NON-PRESCRIBED INCREMENT IN TEMPERATURE IS   -1.29    

 ITERATION SUMMARY FOR THE INCREMENT:   1 TOTAL ITERATIONS, OF WHICH
   0 ARE SEVERE DISCONTINUITY ITERATIONS AND  1 ARE EQUILIBRIUM ITERATIONS.

 TIME INCREMENT COMPLETED  1.000E-02,  FRACTION OF STEP COMPLETED  1.667E-05
 STEP TIME COMPLETED       2.000E-02,  TOTAL TIME COMPLETED        2.000E-02


  INCREMENT     3 STARTS. ATTEMPT NUMBER  1, TIME INCREMENT  1.000E-02

  NUMBER OF EQUATIONS =      864     NUMBER OF FLOATING PT. OPERATIONS =  2.67E+05

     CHECK POINT   START OF SOLVER    

     CHECK POINT  END OF SOLVER       

       ELAPSED USER TIME (SEC)      =   0.0000    
       ELAPSED SYSTEM TIME (SEC)    =   0.0000    
       ELAPSED TOTAL CPU TIME (SEC) =   0.0000    
       ELAPSED WALLCLOCK TIME (SEC) =          0

               CONVERGENCE CHECKS FOR EQUILIBRIUM ITERATION     1


 AVERAGE HEAT FLUX                   71.1       TIME AVG. HEAT FLUX    61.8    
 LARGEST RESIDUAL HEAT FLUX        -2.491E-06   AT NODE         81   DOF 11
   INSTANCE: SZYNA2D-1                                                                       
 LARGEST INCREMENT OF TEMP.         -1.20       AT NODE         81   DOF 11
   INSTANCE: SZYNA2D-1                                                                       
 LARGEST CORRECTION TO TEMP.        8.314E-02   AT NODE         81   DOF 11
   INSTANCE: SZYNA2D-1                                                                       
 ESTIMATE OF TEMP.    CORRECTION   -2.501E-09
 HEAT FLUX EQUILIB. ACCEPTED BASED ON SMALL RESIDUAL AND ESTIMATED CORRECTION

 MAXIMUM NON-PRESCRIBED INCREMENT IN TEMPERATURE IS   -1.20    
          TIME INCREMENT MAY NOW INCREASE TO    2.000E-02

 ITERATION SUMMARY FOR THE INCREMENT:   1 TOTAL ITERATIONS, OF WHICH
   0 ARE SEVERE DISCONTINUITY ITERATIONS AND  1 ARE EQUILIBRIUM ITERATIONS.

 TIME INCREMENT COMPLETED  1.000E-02,  FRACTION OF STEP COMPLETED  2.500E-05
 STEP TIME COMPLETED       3.000E-02,  TOTAL TIME COMPLETED        3.000E-02


  INCREMENT     4 STARTS. ATTEMPT NUMBER  1, TIME INCREMENT  2.000E-02

  NUMBER OF EQUATIONS =      864     NUMBER OF FLOATING PT. OPERATIONS =  2.67E+05

     CHECK POINT   START OF SOLVER    

     CHECK POINT  END OF SOLVER       

       ELAPSED USER TIME (SEC)      =   0.0000    
       ELAPSED SYSTEM TIME (SEC)    =   0.0000    
       ELAPSED TOTAL CPU TIME (SEC) =   0.0000    
       ELAPSED WALLCLOCK TIME (SEC) =          0

               CONVERGENCE CHECKS FOR EQUILIBRIUM ITERATION     1


 AVERAGE HEAT FLUX                   69.2       TIME AVG. HEAT FLUX    63.7    
 LARGEST RESIDUAL HEAT FLUX        -2.711E-05   AT NODE         81   DOF 11
   INSTANCE: SZYNA2D-1                                                                       
 LARGEST INCREMENT OF TEMP.         -2.13       AT NODE         81   DOF 11
   INSTANCE: SZYNA2D-1                                                                       
 LARGEST CORRECTION TO TEMP.        0.275       AT NODE         81   DOF 11
   INSTANCE: SZYNA2D-1                                                                       
 ESTIMATE OF TEMP.    CORRECTION   -4.823E-08
 HEAT FLUX EQUILIB. ACCEPTED BASED ON SMALL RESIDUAL AND ESTIMATED CORRECTION

 MAXIMUM NON-PRESCRIBED INCREMENT IN TEMPERATURE IS   -2.13    
          TIME INCREMENT MAY NOW INCREASE TO    4.000E-02

 ITERATION SUMMARY FOR THE INCREMENT:   1 TOTAL ITERATIONS, OF WHICH
   0 ARE SEVERE DISCONTINUITY ITERATIONS AND  1 ARE EQUILIBRIUM ITERATIONS.

 TIME INCREMENT COMPLETED  2.000E-02,  FRACTION OF STEP COMPLETED  4.167E-05
 STEP TIME COMPLETED       5.000E-02,  TOTAL TIME COMPLETED        5.000E-02


  INCREMENT     5 STARTS. ATTEMPT NUMBER  1, TIME INCREMENT  4.000E-02

  NUMBER OF EQUATIONS =      864     NUMBER OF FLOATING PT. OPERATIONS =  2.67E+05

     CHECK POINT   START OF SOLVER    

     CHECK POINT  END OF SOLVER       

       ELAPSED USER TIME (SEC)      =   0.0000    
       ELAPSED SYSTEM TIME (SEC)    =   0.0000    
       ELAPSED TOTAL CPU TIME (SEC) =   0.0000    
       ELAPSED WALLCLOCK TIME (SEC) =          0

               CONVERGENCE CHECKS FOR EQUILIBRIUM ITERATION     1


 AVERAGE HEAT FLUX                   66.5       TIME AVG. HEAT FLUX    64.2    
 LARGEST RESIDUAL HEAT FLUX        -2.191E-04   AT NODE         81   DOF 11
   INSTANCE: SZYNA2D-1                                                                       
 LARGEST INCREMENT OF TEMP.         -3.48       AT NODE         81   DOF 11
   INSTANCE: SZYNA2D-1                                                                       
 LARGEST CORRECTION TO TEMP.        0.784       AT NODE         81   DOF 11
   INSTANCE: SZYNA2D-1                                                                       
 ESTIMATE OF TEMP.    CORRECTION   -6.353E-07
 HEAT FLUX EQUILIB. ACCEPTED BASED ON SMALL RESIDUAL AND ESTIMATED CORRECTION

 MAXIMUM NON-PRESCRIBED INCREMENT IN TEMPERATURE IS   -3.48    
          TIME INCREMENT MAY NOW INCREASE TO    8.000E-02

 ITERATION SUMMARY FOR THE INCREMENT:   1 TOTAL ITERATIONS, OF WHICH
   0 ARE SEVERE DISCONTINUITY ITERATIONS AND  1 ARE EQUILIBRIUM ITERATIONS.

 TIME INCREMENT COMPLETED  4.000E-02,  FRACTION OF STEP COMPLETED  7.500E-05
 STEP TIME COMPLETED       9.000E-02,  TOTAL TIME COMPLETED        9.000E-02


  INCREMENT     6 STARTS. ATTEMPT NUMBER  1, TIME INCREMENT  8.000E-02

  NUMBER OF EQUATIONS =      864     NUMBER OF FLOATING PT. OPERATIONS =  2.67E+05

     CHECK POINT   START OF SOLVER    

     CHECK POINT  END OF SOLVER       

       ELAPSED USER TIME (SEC)      =   0.0000    
       ELAPSED SYSTEM TIME (SEC)    =   0.0000    
       ELAPSED TOTAL CPU TIME (SEC) =   0.0000    
       ELAPSED WALLCLOCK TIME (SEC) =          0

               CONVERGENCE CHECKS FOR EQUILIBRIUM ITERATION     1


 AVERAGE HEAT FLUX                   66.5       TIME AVG. HEAT FLUX    64.6    
 LARGEST RESIDUAL HEAT FLUX        -1.424E-03   AT NODE         58   DOF 11
   INSTANCE: SZYNA2D-1                                                                       
 LARGEST INCREMENT OF TEMP.         -5.39       AT NODE         58   DOF 11
   INSTANCE: SZYNA2D-1                                                                       
 LARGEST CORRECTION TO TEMP.         1.81       AT NODE         81   DOF 11
   INSTANCE: SZYNA2D-1                                                                       
 ESTIMATE OF TEMP.    CORRECTION   -6.063E-06
 HEAT FLUX EQUILIB. ACCEPTED BASED ON SMALL RESIDUAL AND ESTIMATED CORRECTION

 MAXIMUM NON-PRESCRIBED INCREMENT IN TEMPERATURE IS   -5.39    
          TIME INCREMENT MAY NOW INCREASE TO    0.160    

 ITERATION SUMMARY FOR THE INCREMENT:   1 TOTAL ITERATIONS, OF WHICH
   0 ARE SEVERE DISCONTINUITY ITERATIONS AND  1 ARE EQUILIBRIUM ITERATIONS.

 TIME INCREMENT COMPLETED  8.000E-02,  FRACTION OF STEP COMPLETED  1.417E-04
 STEP TIME COMPLETED       0.170    ,  TOTAL TIME COMPLETED        0.170    


  INCREMENT     7 STARTS. ATTEMPT NUMBER  1, TIME INCREMENT  0.160    

  NUMBER OF EQUATIONS =      864     NUMBER OF FLOATING PT. OPERATIONS =  2.67E+05

     CHECK POINT   START OF SOLVER    

     CHECK POINT  END OF SOLVER       

       ELAPSED USER TIME (SEC)      =   0.0000    
       ELAPSED SYSTEM TIME (SEC)    =   0.0000    
       ELAPSED TOTAL CPU TIME (SEC) =   0.0000    
       ELAPSED WALLCLOCK TIME (SEC) =          0

               CONVERGENCE CHECKS FOR EQUILIBRIUM ITERATION     1


 AVERAGE HEAT FLUX                   70.2       TIME AVG. HEAT FLUX    65.4    
 LARGEST RESIDUAL HEAT FLUX        -5.889E-03   AT NODE         58   DOF 11
   INSTANCE: SZYNA2D-1                                                                       
 LARGEST INCREMENT OF TEMP.         -7.82       AT NODE         59   DOF 11
   INSTANCE: SZYNA2D-1                                                                       
 LARGEST CORRECTION TO TEMP.         3.25       AT NODE         81   DOF 11
   INSTANCE: SZYNA2D-1                                                                       
 ESTIMATE OF TEMP.    CORRECTION   -3.419E-05
 HEAT FLUX EQUILIB. ACCEPTED BASED ON SMALL RESIDUAL AND ESTIMATED CORRECTION

 MAXIMUM NON-PRESCRIBED INCREMENT IN TEMPERATURE IS   -7.82    
          TIME INCREMENT MAY NOW INCREASE TO    0.320    

 ITERATION SUMMARY FOR THE INCREMENT:   1 TOTAL ITERATIONS, OF WHICH
   0 ARE SEVERE DISCONTINUITY ITERATIONS AND  1 ARE EQUILIBRIUM ITERATIONS.

 TIME INCREMENT COMPLETED  0.160    ,  FRACTION OF STEP COMPLETED  2.750E-04
 STEP TIME COMPLETED       0.330    ,  TOTAL TIME COMPLETED        0.330    


  INCREMENT     8 STARTS. ATTEMPT NUMBER  1, TIME INCREMENT  0.320    

  NUMBER OF EQUATIONS =      864     NUMBER OF FLOATING PT. OPERATIONS =  2.67E+05

     CHECK POINT   START OF SOLVER    

     CHECK POINT  END OF SOLVER       

       ELAPSED USER TIME (SEC)      =   0.0000    
       ELAPSED SYSTEM TIME (SEC)    =   0.0000    
       ELAPSED TOTAL CPU TIME (SEC) =   0.0000    
       ELAPSED WALLCLOCK TIME (SEC) =          0

               CONVERGENCE CHECKS FOR EQUILIBRIUM ITERATION     1


 AVERAGE HEAT FLUX                   79.1       TIME AVG. HEAT FLUX    67.1    
 LARGEST RESIDUAL HEAT FLUX        -1.462E-02   AT NODE        281   DOF 11
   INSTANCE: SZYNA2D-1                                                                       
 LARGEST INCREMENT OF TEMP.         -11.5       AT NODE         73   DOF 11
   INSTANCE: SZYNA2D-1                                                                       
 LARGEST CORRECTION TO TEMP.         5.00       AT NODE         80   DOF 11
   INSTANCE: SZYNA2D-1                                                                       
 ESTIMATE OF TEMP.    CORRECTION   -1.207E-04
 HEAT FLUX EQUILIB. ACCEPTED BASED ON SMALL RESIDUAL AND ESTIMATED CORRECTION

 MAXIMUM NON-PRESCRIBED INCREMENT IN TEMPERATURE IS   -11.5    
          TIME INCREMENT MAY NOW INCREASE TO    0.640    

 ITERATION SUMMARY FOR THE INCREMENT:   1 TOTAL ITERATIONS, OF WHICH
   0 ARE SEVERE DISCONTINUITY ITERATIONS AND  1 ARE EQUILIBRIUM ITERATIONS.

 TIME INCREMENT COMPLETED  0.320    ,  FRACTION OF STEP COMPLETED  5.417E-04
 STEP TIME COMPLETED       0.650    ,  TOTAL TIME COMPLETED        0.650    


  INCREMENT     9 STARTS. ATTEMPT NUMBER  1, TIME INCREMENT  0.640    

  NUMBER OF EQUATIONS =      864     NUMBER OF FLOATING PT. OPERATIONS =  2.67E+05

     CHECK POINT   START OF SOLVER    

     CHECK POINT  END OF SOLVER       

       ELAPSED USER TIME (SEC)      =   0.0000    
       ELAPSED SYSTEM TIME (SEC)    =   0.0000    
       ELAPSED TOTAL CPU TIME (SEC) =   0.0000    
       ELAPSED WALLCLOCK TIME (SEC) =          0

               CONVERGENCE CHECKS FOR EQUILIBRIUM ITERATION     1


 AVERAGE HEAT FLUX                   93.1       TIME AVG. HEAT FLUX    70.0    
 LARGEST RESIDUAL HEAT FLUX        -2.801E-02   AT NODE         80   DOF 11
   INSTANCE: SZYNA2D-1                                                                       
 LARGEST INCREMENT OF TEMP.         -16.6       AT NODE         73   DOF 11
   INSTANCE: SZYNA2D-1                                                                       
 LARGEST CORRECTION TO TEMP.         7.39       AT NODE         80   DOF 11
   INSTANCE: SZYNA2D-1                                                                       
 ESTIMATE OF TEMP.    CORRECTION   -3.625E-04
 HEAT FLUX EQUILIB. ACCEPTED BASED ON SMALL RESIDUAL AND ESTIMATED CORRECTION

 MAXIMUM NON-PRESCRIBED INCREMENT IN TEMPERATURE IS   -16.6    
          TIME INCREMENT MAY NOW INCREASE TO     1.00    

 ITERATION SUMMARY FOR THE INCREMENT:   1 TOTAL ITERATIONS, OF WHICH
   0 ARE SEVERE DISCONTINUITY ITERATIONS AND  1 ARE EQUILIBRIUM ITERATIONS.

 TIME INCREMENT COMPLETED  0.640    ,  FRACTION OF STEP COMPLETED  1.075E-03
 STEP TIME COMPLETED        1.29    ,  TOTAL TIME COMPLETED         1.29    


  INCREMENT    10 STARTS. ATTEMPT NUMBER  1, TIME INCREMENT   1.00    

  NUMBER OF EQUATIONS =      864     NUMBER OF FLOATING PT. OPERATIONS =  2.67E+05

     CHECK POINT   START OF SOLVER    

     CHECK POINT  END OF SOLVER       

       ELAPSED USER TIME (SEC)      =   0.0000    
       ELAPSED SYSTEM TIME (SEC)    =   0.0000    
       ELAPSED TOTAL CPU TIME (SEC) =   0.0000    
       ELAPSED WALLCLOCK TIME (SEC) =          0

               CONVERGENCE CHECKS FOR EQUILIBRIUM ITERATION     1


 AVERAGE HEAT FLUX                   107.       TIME AVG. HEAT FLUX    73.7    
 LARGEST RESIDUAL HEAT FLUX        -2.724E-02   AT NODE         72   DOF 11
   INSTANCE: SZYNA2D-1                                                                       
 LARGEST INCREMENT OF TEMP.         -19.2       AT NODE         73   DOF 11
   INSTANCE: SZYNA2D-1                                                                       
 LARGEST CORRECTION TO TEMP.         6.71       AT NODE         72   DOF 11
   INSTANCE: SZYNA2D-1                                                                       
 ESTIMATE OF TEMP.    CORRECTION   -5.082E-04
 HEAT FLUX EQUILIB. ACCEPTED BASED ON SMALL RESIDUAL AND ESTIMATED CORRECTION

 MAXIMUM NON-PRESCRIBED INCREMENT IN TEMPERATURE IS   -19.2    

 ITERATION SUMMARY FOR THE INCREMENT:   1 TOTAL ITERATIONS, OF WHICH
   0 ARE SEVERE DISCONTINUITY ITERATIONS AND  1 ARE EQUILIBRIUM ITERATIONS.

 TIME INCREMENT COMPLETED   1.00    ,  FRACTION OF STEP COMPLETED  1.908E-03
 STEP TIME COMPLETED        2.29    ,  TOTAL TIME COMPLETED         2.29    


  INCREMENT    11 STARTS. ATTEMPT NUMBER  1, TIME INCREMENT   1.00    

  NUMBER OF EQUATIONS =      864     NUMBER OF FLOATING PT. OPERATIONS =  2.67E+05

     CHECK POINT   START OF SOLVER    

     CHECK POINT  END OF SOLVER       

       ELAPSED USER TIME (SEC)      =   0.0000    
       ELAPSED SYSTEM TIME (SEC)    =   0.0000    
       ELAPSED TOTAL CPU TIME (SEC) =   0.0000    
       ELAPSED WALLCLOCK TIME (SEC) =          0

               CONVERGENCE CHECKS FOR EQUILIBRIUM ITERATION     1


 AVERAGE HEAT FLUX                   117.       TIME AVG. HEAT FLUX    77.7    
 LARGEST RESIDUAL HEAT FLUX        -7.393E-03   AT NODE         73   DOF 11
   INSTANCE: SZYNA2D-1                                                                       
 LARGEST INCREMENT OF TEMP.         -15.6       AT NODE         73   DOF 11
   INSTANCE: SZYNA2D-1                                                                       
 LARGEST CORRECTION TO TEMP.         3.55       AT NODE         73   DOF 11
   INSTANCE: SZYNA2D-1                                                                       
 ESTIMATE OF TEMP.    CORRECTION   -1.715E-04
 HEAT FLUX EQUILIB. ACCEPTED BASED ON SMALL RESIDUAL AND ESTIMATED CORRECTION

 MAXIMUM NON-PRESCRIBED INCREMENT IN TEMPERATURE IS   -15.6    

 ITERATION SUMMARY FOR THE INCREMENT:   1 TOTAL ITERATIONS, OF WHICH
   0 ARE SEVERE DISCONTINUITY ITERATIONS AND  1 ARE EQUILIBRIUM ITERATIONS.

 TIME INCREMENT COMPLETED   1.00    ,  FRACTION OF STEP COMPLETED  2.742E-03
 STEP TIME COMPLETED        3.29    ,  TOTAL TIME COMPLETED         3.29    


  INCREMENT    12 STARTS. ATTEMPT NUMBER  1, TIME INCREMENT   1.00    

  NUMBER OF EQUATIONS =      864     NUMBER OF FLOATING PT. OPERATIONS =  2.67E+05

     CHECK POINT   START OF SOLVER    

     CHECK POINT  END OF SOLVER       

       ELAPSED USER TIME (SEC)      =   0.0000    
       ELAPSED SYSTEM TIME (SEC)    =   0.0000    
       ELAPSED TOTAL CPU TIME (SEC) =   0.0000    
       ELAPSED WALLCLOCK TIME (SEC) =          0

               CONVERGENCE CHECKS FOR EQUILIBRIUM ITERATION     1


 AVERAGE HEAT FLUX                   125.       TIME AVG. HEAT FLUX    81.7    
 LARGEST RESIDUAL HEAT FLUX        -2.806E-03   AT NODE         73   DOF 11
   INSTANCE: SZYNA2D-1                                                                       
 LARGEST INCREMENT OF TEMP.         -13.4       AT NODE         73   DOF 11
   INSTANCE: SZYNA2D-1                                                                       
 LARGEST CORRECTION TO TEMP.         2.21       AT NODE         73   DOF 11
   INSTANCE: SZYNA2D-1                                                                       
 ESTIMATE OF TEMP.    CORRECTION   -7.224E-05
 HEAT FLUX EQUILIB. ACCEPTED BASED ON SMALL RESIDUAL AND ESTIMATED CORRECTION

 MAXIMUM NON-PRESCRIBED INCREMENT IN TEMPERATURE IS   -13.4    

 ITERATION SUMMARY FOR THE INCREMENT:   1 TOTAL ITERATIONS, OF WHICH
   0 ARE SEVERE DISCONTINUITY ITERATIONS AND  1 ARE EQUILIBRIUM ITERATIONS.

 TIME INCREMENT COMPLETED   1.00    ,  FRACTION OF STEP COMPLETED  3.575E-03
 STEP TIME COMPLETED        4.29    ,  TOTAL TIME COMPLETED         4.29    


  INCREMENT    13 STARTS. ATTEMPT NUMBER  1, TIME INCREMENT   1.00    

  NUMBER OF EQUATIONS =      864     NUMBER OF FLOATING PT. OPERATIONS =  2.67E+05

     CHECK POINT   START OF SOLVER    

     CHECK POINT  END OF SOLVER       

       ELAPSED USER TIME (SEC)      =   0.0000    
       ELAPSED SYSTEM TIME (SEC)    =   0.0000    
       ELAPSED TOTAL CPU TIME (SEC) =   0.0000    
       ELAPSED WALLCLOCK TIME (SEC) =          0

               CONVERGENCE CHECKS FOR EQUILIBRIUM ITERATION     1


 AVERAGE HEAT FLUX                   131.       TIME AVG. HEAT FLUX    85.5    
 LARGEST RESIDUAL HEAT FLUX        -1.330E-03   AT NODE         73   DOF 11
   INSTANCE: SZYNA2D-1                                                                       
 LARGEST INCREMENT OF TEMP.         -11.9       AT NODE        348   DOF 11
   INSTANCE: SZYNA2D-1                                                                       
 LARGEST CORRECTION TO TEMP.         1.54       AT NODE         73   DOF 11
   INSTANCE: SZYNA2D-1                                                                       
 ESTIMATE OF TEMP.    CORRECTION   -2.891E-05
 HEAT FLUX EQUILIB. ACCEPTED BASED ON SMALL RESIDUAL AND ESTIMATED CORRECTION

 MAXIMUM NON-PRESCRIBED INCREMENT IN TEMPERATURE IS   -11.9    

 ITERATION SUMMARY FOR THE INCREMENT:   1 TOTAL ITERATIONS, OF WHICH
   0 ARE SEVERE DISCONTINUITY ITERATIONS AND  1 ARE EQUILIBRIUM ITERATIONS.

 TIME INCREMENT COMPLETED   1.00    ,  FRACTION OF STEP COMPLETED  4.408E-03
 STEP TIME COMPLETED        5.29    ,  TOTAL TIME COMPLETED         5.29    


  INCREMENT    14 STARTS. ATTEMPT NUMBER  1, TIME INCREMENT   1.00    

  NUMBER OF EQUATIONS =      864     NUMBER OF FLOATING PT. OPERATIONS =  2.67E+05

     CHECK POINT   START OF SOLVER    

     CHECK POINT  END OF SOLVER       

       ELAPSED USER TIME (SEC)      =   0.0000    
       ELAPSED SYSTEM TIME (SEC)    =   0.0000    
       ELAPSED TOTAL CPU TIME (SEC) =   0.0000    
       ELAPSED WALLCLOCK TIME (SEC) =          0

               CONVERGENCE CHECKS FOR EQUILIBRIUM ITERATION     1


 AVERAGE HEAT FLUX                   136.       TIME AVG. HEAT FLUX    89.1    
 LARGEST RESIDUAL HEAT FLUX        -7.285E-04   AT NODE         73   DOF 11
   INSTANCE: SZYNA2D-1                                                                       
 LARGEST INCREMENT OF TEMP.         -10.8       AT NODE        226   DOF 11
   INSTANCE: SZYNA2D-1                                                                       
 LARGEST CORRECTION TO TEMP.         1.15       AT NODE         73   DOF 11
   INSTANCE: SZYNA2D-1                                                                       
 ESTIMATE OF TEMP.    CORRECTION   -1.470E-05
 HEAT FLUX EQUILIB. ACCEPTED BASED ON SMALL RESIDUAL AND ESTIMATED CORRECTION

 MAXIMUM NON-PRESCRIBED INCREMENT IN TEMPERATURE IS   -10.8    

 ITERATION SUMMARY FOR THE INCREMENT:   1 TOTAL ITERATIONS, OF WHICH
   0 ARE SEVERE DISCONTINUITY ITERATIONS AND  1 ARE EQUILIBRIUM ITERATIONS.

 TIME INCREMENT COMPLETED   1.00    ,  FRACTION OF STEP COMPLETED  5.242E-03
 STEP TIME COMPLETED        6.29    ,  TOTAL TIME COMPLETED         6.29    


  INCREMENT    15 STARTS. ATTEMPT NUMBER  1, TIME INCREMENT   1.00    

  NUMBER OF EQUATIONS =      864     NUMBER OF FLOATING PT. OPERATIONS =  2.67E+05

     CHECK POINT   START OF SOLVER    

     CHECK POINT  END OF SOLVER       

       ELAPSED USER TIME (SEC)      =   0.0000    
       ELAPSED SYSTEM TIME (SEC)    =   0.0000    
       ELAPSED TOTAL CPU TIME (SEC) =   0.0000    
       ELAPSED WALLCLOCK TIME (SEC) =          0

               CONVERGENCE CHECKS FOR EQUILIBRIUM ITERATION     1


 AVERAGE HEAT FLUX                   141.       TIME AVG. HEAT FLUX    92.5    
 LARGEST RESIDUAL HEAT FLUX        -4.405E-04   AT NODE         73   DOF 11
   INSTANCE: SZYNA2D-1                                                                       
 LARGEST INCREMENT OF TEMP.         -9.98       AT NODE        226   DOF 11
   INSTANCE: SZYNA2D-1                                                                       
 LARGEST CORRECTION TO TEMP.        0.905       AT NODE         73   DOF 11
   INSTANCE: SZYNA2D-1                                                                       
 ESTIMATE OF TEMP.    CORRECTION   -8.541E-06
 HEAT FLUX EQUILIB. ACCEPTED BASED ON SMALL RESIDUAL AND ESTIMATED CORRECTION

 MAXIMUM NON-PRESCRIBED INCREMENT IN TEMPERATURE IS   -9.98    

 ITERATION SUMMARY FOR THE INCREMENT:   1 TOTAL ITERATIONS, OF WHICH
   0 ARE SEVERE DISCONTINUITY ITERATIONS AND  1 ARE EQUILIBRIUM ITERATIONS.

 TIME INCREMENT COMPLETED   1.00    ,  FRACTION OF STEP COMPLETED  6.075E-03
 STEP TIME COMPLETED        7.29    ,  TOTAL TIME COMPLETED         7.29    


  INCREMENT    16 STARTS. ATTEMPT NUMBER  1, TIME INCREMENT   1.00    

  NUMBER OF EQUATIONS =      864     NUMBER OF FLOATING PT. OPERATIONS =  2.67E+05

     CHECK POINT   START OF SOLVER    

     CHECK POINT  END OF SOLVER       

       ELAPSED USER TIME (SEC)      =   0.0000    
       ELAPSED SYSTEM TIME (SEC)    =   0.0000    
       ELAPSED TOTAL CPU TIME (SEC) =   0.0000    
       ELAPSED WALLCLOCK TIME (SEC) =          0

               CONVERGENCE CHECKS FOR EQUILIBRIUM ITERATION     1


 AVERAGE HEAT FLUX                   144.       TIME AVG. HEAT FLUX    95.8    
 LARGEST RESIDUAL HEAT FLUX        -2.857E-04   AT NODE         73   DOF 11
   INSTANCE: SZYNA2D-1                                                                       
 LARGEST INCREMENT OF TEMP.         -9.27       AT NODE        226   DOF 11
   INSTANCE: SZYNA2D-1                                                                       
 LARGEST CORRECTION TO TEMP.        0.736       AT NODE         73   DOF 11
   INSTANCE: SZYNA2D-1                                                                       
 ESTIMATE OF TEMP.    CORRECTION   -5.396E-06
 HEAT FLUX EQUILIB. ACCEPTED BASED ON SMALL RESIDUAL AND ESTIMATED CORRECTION

 MAXIMUM NON-PRESCRIBED INCREMENT IN TEMPERATURE IS   -9.27    

 ITERATION SUMMARY FOR THE INCREMENT:   1 TOTAL ITERATIONS, OF WHICH
   0 ARE SEVERE DISCONTINUITY ITERATIONS AND  1 ARE EQUILIBRIUM ITERATIONS.

 TIME INCREMENT COMPLETED   1.00    ,  FRACTION OF STEP COMPLETED  6.908E-03
 STEP TIME COMPLETED        8.29    ,  TOTAL TIME COMPLETED         8.29    


  INCREMENT    17 STARTS. ATTEMPT NUMBER  1, TIME INCREMENT   1.00    

  NUMBER OF EQUATIONS =      864     NUMBER OF FLOATING PT. OPERATIONS =  2.67E+05

     CHECK POINT   START OF SOLVER    

     CHECK POINT  END OF SOLVER       

       ELAPSED USER TIME (SEC)      =   0.0000    
       ELAPSED SYSTEM TIME (SEC)    =   0.0000    
       ELAPSED TOTAL CPU TIME (SEC) =   0.0000    
       ELAPSED WALLCLOCK TIME (SEC) =          0

               CONVERGENCE CHECKS FOR EQUILIBRIUM ITERATION     1


 AVERAGE HEAT FLUX                   147.       TIME AVG. HEAT FLUX    98.8    
 LARGEST RESIDUAL HEAT FLUX        -1.950E-04   AT NODE         73   DOF 11
   INSTANCE: SZYNA2D-1                                                                       
 LARGEST INCREMENT OF TEMP.         -8.67       AT NODE        226   DOF 11
   INSTANCE: SZYNA2D-1                                                                       
 LARGEST CORRECTION TO TEMP.        0.613       AT NODE         73   DOF 11
   INSTANCE: SZYNA2D-1                                                                       
 ESTIMATE OF TEMP.    CORRECTION   -3.617E-06
 HEAT FLUX EQUILIB. ACCEPTED BASED ON SMALL RESIDUAL AND ESTIMATED CORRECTION

 MAXIMUM NON-PRESCRIBED INCREMENT IN TEMPERATURE IS   -8.67    

 ITERATION SUMMARY FOR THE INCREMENT:   1 TOTAL ITERATIONS, OF WHICH
   0 ARE SEVERE DISCONTINUITY ITERATIONS AND  1 ARE EQUILIBRIUM ITERATIONS.

 TIME INCREMENT COMPLETED   1.00    ,  FRACTION OF STEP COMPLETED  7.742E-03
 STEP TIME COMPLETED        9.29    ,  TOTAL TIME COMPLETED         9.29    


  INCREMENT    18 STARTS. ATTEMPT NUMBER  1, TIME INCREMENT   1.00    

  NUMBER OF EQUATIONS =      864     NUMBER OF FLOATING PT. OPERATIONS =  2.67E+05

     CHECK POINT   START OF SOLVER    

     CHECK POINT  END OF SOLVER       

       ELAPSED USER TIME (SEC)      =   0.0000    
       ELAPSED SYSTEM TIME (SEC)    =   0.0000    
       ELAPSED TOTAL CPU TIME (SEC) =   0.0000    
       ELAPSED WALLCLOCK TIME (SEC) =          0

               CONVERGENCE CHECKS FOR EQUILIBRIUM ITERATION     1


 AVERAGE HEAT FLUX                   150.       TIME AVG. HEAT FLUX    102.    
 LARGEST RESIDUAL HEAT FLUX        -1.384E-04   AT NODE         73   DOF 11
   INSTANCE: SZYNA2D-1                                                                       
 LARGEST INCREMENT OF TEMP.         -8.15       AT NODE        226   DOF 11
   INSTANCE: SZYNA2D-1                                                                       
 LARGEST CORRECTION TO TEMP.        0.521       AT NODE         73   DOF 11
   INSTANCE: SZYNA2D-1                                                                       
 ESTIMATE OF TEMP.    CORRECTION   -2.532E-06
 HEAT FLUX EQUILIB. ACCEPTED BASED ON SMALL RESIDUAL AND ESTIMATED CORRECTION

 MAXIMUM NON-PRESCRIBED INCREMENT IN TEMPERATURE IS   -8.15    

 ITERATION SUMMARY FOR THE INCREMENT:   1 TOTAL ITERATIONS, OF WHICH
   0 ARE SEVERE DISCONTINUITY ITERATIONS AND  1 ARE EQUILIBRIUM ITERATIONS.

 TIME INCREMENT COMPLETED   1.00    ,  FRACTION OF STEP COMPLETED  8.575E-03
 STEP TIME COMPLETED        10.3    ,  TOTAL TIME COMPLETED         10.3    


  INCREMENT    19 STARTS. ATTEMPT NUMBER  1, TIME INCREMENT   1.00    

  NUMBER OF EQUATIONS =      864     NUMBER OF FLOATING PT. OPERATIONS =  2.67E+05

     CHECK POINT   START OF SOLVER    

     CHECK POINT  END OF SOLVER       

       ELAPSED USER TIME (SEC)      =   0.0000    
       ELAPSED SYSTEM TIME (SEC)    =   0.0000    
       ELAPSED TOTAL CPU TIME (SEC) =   0.0000    
       ELAPSED WALLCLOCK TIME (SEC) =          0

               CONVERGENCE CHECKS FOR EQUILIBRIUM ITERATION     1


 AVERAGE HEAT FLUX                   152.       TIME AVG. HEAT FLUX    104.    
 LARGEST RESIDUAL HEAT FLUX        -1.012E-04   AT NODE         73   DOF 11
   INSTANCE: SZYNA2D-1                                                                       
 LARGEST INCREMENT OF TEMP.         -7.71       AT NODE        226   DOF 11
   INSTANCE: SZYNA2D-1                                                                       
 LARGEST CORRECTION TO TEMP.        0.449       AT NODE         73   DOF 11
   INSTANCE: SZYNA2D-1                                                                       
 ESTIMATE OF TEMP.    CORRECTION   -1.781E-06
 HEAT FLUX EQUILIB. ACCEPTED BASED ON SMALL RESIDUAL AND ESTIMATED CORRECTION

 MAXIMUM NON-PRESCRIBED INCREMENT IN TEMPERATURE IS   -7.71    

 ITERATION SUMMARY FOR THE INCREMENT:   1 TOTAL ITERATIONS, OF WHICH
   0 ARE SEVERE DISCONTINUITY ITERATIONS AND  1 ARE EQUILIBRIUM ITERATIONS.

 TIME INCREMENT COMPLETED   1.00    ,  FRACTION OF STEP COMPLETED  9.408E-03
 STEP TIME COMPLETED        11.3    ,  TOTAL TIME COMPLETED         11.3    


  INCREMENT    20 STARTS. ATTEMPT NUMBER  1, TIME INCREMENT   1.00    

  NUMBER OF EQUATIONS =      864     NUMBER OF FLOATING PT. OPERATIONS =  2.67E+05

     CHECK POINT   START OF SOLVER    

     CHECK POINT  END OF SOLVER       

       ELAPSED USER TIME (SEC)      =   0.0000    
       ELAPSED SYSTEM TIME (SEC)    =   0.0000    
       ELAPSED TOTAL CPU TIME (SEC) =   0.0000    
       ELAPSED WALLCLOCK TIME (SEC) =          0

               CONVERGENCE CHECKS FOR EQUILIBRIUM ITERATION     1


 AVERAGE HEAT FLUX                   155.       TIME AVG. HEAT FLUX    107.    
 LARGEST RESIDUAL HEAT FLUX        -7.579E-05   AT NODE         73   DOF 11
   INSTANCE: SZYNA2D-1                                                                       
 LARGEST INCREMENT OF TEMP.         -7.32       AT NODE        816   DOF 11
   INSTANCE: SZYNA2D-1                                                                       
 LARGEST CORRECTION TO TEMP.        0.392       AT NODE        226   DOF 11
   INSTANCE: SZYNA2D-1                                                                       
 ESTIMATE OF TEMP.    CORRECTION   -1.292E-06
 HEAT FLUX EQUILIB. ACCEPTED BASED ON SMALL RESIDUAL AND ESTIMATED CORRECTION

 MAXIMUM NON-PRESCRIBED INCREMENT IN TEMPERATURE IS   -7.32    

 ITERATION SUMMARY FOR THE INCREMENT:   1 TOTAL ITERATIONS, OF WHICH
   0 ARE SEVERE DISCONTINUITY ITERATIONS AND  1 ARE EQUILIBRIUM ITERATIONS.

 TIME INCREMENT COMPLETED   1.00    ,  FRACTION OF STEP COMPLETED  1.024E-02
 STEP TIME COMPLETED        12.3    ,  TOTAL TIME COMPLETED         12.3    


  INCREMENT    21 STARTS. ATTEMPT NUMBER  1, TIME INCREMENT   1.00    

  NUMBER OF EQUATIONS =      864     NUMBER OF FLOATING PT. OPERATIONS =  2.67E+05

     CHECK POINT   START OF SOLVER    

     CHECK POINT  END OF SOLVER       

       ELAPSED USER TIME (SEC)      =   0.0000    
       ELAPSED SYSTEM TIME (SEC)    =   0.0000    
       ELAPSED TOTAL CPU TIME (SEC) =   0.0000    
       ELAPSED WALLCLOCK TIME (SEC) =          0

               CONVERGENCE CHECKS FOR EQUILIBRIUM ITERATION     1


 AVERAGE HEAT FLUX                   156.       TIME AVG. HEAT FLUX    109.    
 LARGEST RESIDUAL HEAT FLUX        -5.787E-05   AT NODE         73   DOF 11
   INSTANCE: SZYNA2D-1                                                                       
 LARGEST INCREMENT OF TEMP.         -6.99       AT NODE        816   DOF 11
   INSTANCE: SZYNA2D-1                                                                       
 LARGEST CORRECTION TO TEMP.        0.346       AT NODE        226   DOF 11
   INSTANCE: SZYNA2D-1                                                                       
 ESTIMATE OF TEMP.    CORRECTION   -9.661E-07
 HEAT FLUX EQUILIB. ACCEPTED BASED ON SMALL RESIDUAL AND ESTIMATED CORRECTION

 MAXIMUM NON-PRESCRIBED INCREMENT IN TEMPERATURE IS   -6.99    

 ITERATION SUMMARY FOR THE INCREMENT:   1 TOTAL ITERATIONS, OF WHICH
   0 ARE SEVERE DISCONTINUITY ITERATIONS AND  1 ARE EQUILIBRIUM ITERATIONS.

 TIME INCREMENT COMPLETED   1.00    ,  FRACTION OF STEP COMPLETED  1.107E-02
 STEP TIME COMPLETED        13.3    ,  TOTAL TIME COMPLETED         13.3    


  INCREMENT    22 STARTS. ATTEMPT NUMBER  1, TIME INCREMENT   1.00    

  NUMBER OF EQUATIONS =      864     NUMBER OF FLOATING PT. OPERATIONS =  2.67E+05

     CHECK POINT   START OF SOLVER    

     CHECK POINT  END OF SOLVER       

       ELAPSED USER TIME (SEC)      =   0.0000    
       ELAPSED SYSTEM TIME (SEC)    =   0.0000    
       ELAPSED TOTAL CPU TIME (SEC) =   0.0000    
       ELAPSED WALLCLOCK TIME (SEC) =          0

               CONVERGENCE CHECKS FOR EQUILIBRIUM ITERATION     1


 AVERAGE HEAT FLUX                   158.       TIME AVG. HEAT FLUX    111.    
 LARGEST RESIDUAL HEAT FLUX        -4.490E-05   AT NODE         73   DOF 11
   INSTANCE: SZYNA2D-1                                                                       
 LARGEST INCREMENT OF TEMP.         -6.70       AT NODE        485   DOF 11
   INSTANCE: SZYNA2D-1                                                                       
 LARGEST CORRECTION TO TEMP.        0.308       AT NODE        226   DOF 11
   INSTANCE: SZYNA2D-1                                                                       
 ESTIMATE OF TEMP.    CORRECTION   -7.376E-07
 HEAT FLUX EQUILIB. ACCEPTED BASED ON SMALL RESIDUAL AND ESTIMATED CORRECTION

 MAXIMUM NON-PRESCRIBED INCREMENT IN TEMPERATURE IS   -6.70    

 ITERATION SUMMARY FOR THE INCREMENT:   1 TOTAL ITERATIONS, OF WHICH
   0 ARE SEVERE DISCONTINUITY ITERATIONS AND  1 ARE EQUILIBRIUM ITERATIONS.

 TIME INCREMENT COMPLETED   1.00    ,  FRACTION OF STEP COMPLETED  1.191E-02
 STEP TIME COMPLETED        14.3    ,  TOTAL TIME COMPLETED         14.3    


  INCREMENT    23 STARTS. ATTEMPT NUMBER  1, TIME INCREMENT   1.00    

  NUMBER OF EQUATIONS =      864     NUMBER OF FLOATING PT. OPERATIONS =  2.67E+05

     CHECK POINT   START OF SOLVER    

     CHECK POINT  END OF SOLVER       

       ELAPSED USER TIME (SEC)      =   0.0000    
       ELAPSED SYSTEM TIME (SEC)    =   0.0000    
       ELAPSED TOTAL CPU TIME (SEC) =   0.0000    
       ELAPSED WALLCLOCK TIME (SEC) =          0

               CONVERGENCE CHECKS FOR EQUILIBRIUM ITERATION     1


 AVERAGE HEAT FLUX                   160.       TIME AVG. HEAT FLUX    114.    
 LARGEST RESIDUAL HEAT FLUX        -3.531E-05   AT NODE         73   DOF 11
   INSTANCE: SZYNA2D-1                                                                       
 LARGEST INCREMENT OF TEMP.         -6.44       AT NODE        485   DOF 11
   INSTANCE: SZYNA2D-1                                                                       
 LARGEST CORRECTION TO TEMP.        0.276       AT NODE        226   DOF 11
   INSTANCE: SZYNA2D-1                                                                       
 ESTIMATE OF TEMP.    CORRECTION   -5.728E-07
 HEAT FLUX EQUILIB. ACCEPTED BASED ON SMALL RESIDUAL AND ESTIMATED CORRECTION

 MAXIMUM NON-PRESCRIBED INCREMENT IN TEMPERATURE IS   -6.44    

 ITERATION SUMMARY FOR THE INCREMENT:   1 TOTAL ITERATIONS, OF WHICH
   0 ARE SEVERE DISCONTINUITY ITERATIONS AND  1 ARE EQUILIBRIUM ITERATIONS.

 TIME INCREMENT COMPLETED   1.00    ,  FRACTION OF STEP COMPLETED  1.274E-02
 STEP TIME COMPLETED        15.3    ,  TOTAL TIME COMPLETED         15.3    


  INCREMENT    24 STARTS. ATTEMPT NUMBER  1, TIME INCREMENT   1.00    

  NUMBER OF EQUATIONS =      864     NUMBER OF FLOATING PT. OPERATIONS =  2.67E+05

     CHECK POINT   START OF SOLVER    

     CHECK POINT  END OF SOLVER       

       ELAPSED USER TIME (SEC)      =   0.0000    
       ELAPSED SYSTEM TIME (SEC)    =   0.0000    
       ELAPSED TOTAL CPU TIME (SEC) =   0.0000    
       ELAPSED WALLCLOCK TIME (SEC) =          0

               CONVERGENCE CHECKS FOR EQUILIBRIUM ITERATION     1


 AVERAGE HEAT FLUX                   161.       TIME AVG. HEAT FLUX    115.    
 LARGEST RESIDUAL HEAT FLUX        -2.809E-05   AT NODE         73   DOF 11
   INSTANCE: SZYNA2D-1                                                                       
 LARGEST INCREMENT OF TEMP.         -6.21       AT NODE        485   DOF 11
   INSTANCE: SZYNA2D-1                                                                       
 LARGEST CORRECTION TO TEMP.        0.248       AT NODE        226   DOF 11
   INSTANCE: SZYNA2D-1                                                                       
 ESTIMATE OF TEMP.    CORRECTION   -4.509E-07
 HEAT FLUX EQUILIB. ACCEPTED BASED ON SMALL RESIDUAL AND ESTIMATED CORRECTION

 MAXIMUM NON-PRESCRIBED INCREMENT IN TEMPERATURE IS   -6.21    

 ITERATION SUMMARY FOR THE INCREMENT:   1 TOTAL ITERATIONS, OF WHICH
   0 ARE SEVERE DISCONTINUITY ITERATIONS AND  1 ARE EQUILIBRIUM ITERATIONS.

 TIME INCREMENT COMPLETED   1.00    ,  FRACTION OF STEP COMPLETED  1.357E-02
 STEP TIME COMPLETED        16.3    ,  TOTAL TIME COMPLETED         16.3    


  INCREMENT    25 STARTS. ATTEMPT NUMBER  1, TIME INCREMENT   1.00    

  NUMBER OF EQUATIONS =      864     NUMBER OF FLOATING PT. OPERATIONS =  2.67E+05

     CHECK POINT   START OF SOLVER    

     CHECK POINT  END OF SOLVER       

       ELAPSED USER TIME (SEC)      =   0.0000    
       ELAPSED SYSTEM TIME (SEC)    =   0.0000    
       ELAPSED TOTAL CPU TIME (SEC) =   0.0000    
       ELAPSED WALLCLOCK TIME (SEC) =          0

               CONVERGENCE CHECKS FOR EQUILIBRIUM ITERATION     1


 AVERAGE HEAT FLUX                   162.       TIME AVG. HEAT FLUX    117.    
 LARGEST RESIDUAL HEAT FLUX        -2.258E-05   AT NODE         73   DOF 11
   INSTANCE: SZYNA2D-1                                                                       
 LARGEST INCREMENT OF TEMP.         -6.00       AT NODE        218   DOF 11
   INSTANCE: SZYNA2D-1                                                                       
 LARGEST CORRECTION TO TEMP.        0.224       AT NODE        226   DOF 11
   INSTANCE: SZYNA2D-1                                                                       
 ESTIMATE OF TEMP.    CORRECTION   -3.593E-07
 HEAT FLUX EQUILIB. ACCEPTED BASED ON SMALL RESIDUAL AND ESTIMATED CORRECTION

 MAXIMUM NON-PRESCRIBED INCREMENT IN TEMPERATURE IS   -6.00    

 ITERATION SUMMARY FOR THE INCREMENT:   1 TOTAL ITERATIONS, OF WHICH
   0 ARE SEVERE DISCONTINUITY ITERATIONS AND  1 ARE EQUILIBRIUM ITERATIONS.

 TIME INCREMENT COMPLETED   1.00    ,  FRACTION OF STEP COMPLETED  1.441E-02
 STEP TIME COMPLETED        17.3    ,  TOTAL TIME COMPLETED         17.3    


  INCREMENT    26 STARTS. ATTEMPT NUMBER  1, TIME INCREMENT   1.00    

  NUMBER OF EQUATIONS =      864     NUMBER OF FLOATING PT. OPERATIONS =  2.67E+05

     CHECK POINT   START OF SOLVER    

     CHECK POINT  END OF SOLVER       

       ELAPSED USER TIME (SEC)      =   0.0000    
       ELAPSED SYSTEM TIME (SEC)    =   0.0000    
       ELAPSED TOTAL CPU TIME (SEC) =   0.0000    
       ELAPSED WALLCLOCK TIME (SEC) =          0

               CONVERGENCE CHECKS FOR EQUILIBRIUM ITERATION     1


 AVERAGE HEAT FLUX                   163.       TIME AVG. HEAT FLUX    119.    
 LARGEST RESIDUAL HEAT FLUX        -1.833E-05   AT NODE         73   DOF 11
   INSTANCE: SZYNA2D-1                                                                       
 LARGEST INCREMENT OF TEMP.         -5.82       AT NODE        218   DOF 11
   INSTANCE: SZYNA2D-1                                                                       
 LARGEST CORRECTION TO TEMP.        0.204       AT NODE        226   DOF 11
   INSTANCE: SZYNA2D-1                                                                       
 ESTIMATE OF TEMP.    CORRECTION   -2.892E-07
 HEAT FLUX EQUILIB. ACCEPTED BASED ON SMALL RESIDUAL AND ESTIMATED CORRECTION

 MAXIMUM NON-PRESCRIBED INCREMENT IN TEMPERATURE IS   -5.82    

 ITERATION SUMMARY FOR THE INCREMENT:   1 TOTAL ITERATIONS, OF WHICH
   0 ARE SEVERE DISCONTINUITY ITERATIONS AND  1 ARE EQUILIBRIUM ITERATIONS.

 TIME INCREMENT COMPLETED   1.00    ,  FRACTION OF STEP COMPLETED  1.524E-02
 STEP TIME COMPLETED        18.3    ,  TOTAL TIME COMPLETED         18.3    


  INCREMENT    27 STARTS. ATTEMPT NUMBER  1, TIME INCREMENT   1.00    

  NUMBER OF EQUATIONS =      864     NUMBER OF FLOATING PT. OPERATIONS =  2.67E+05

     CHECK POINT   START OF SOLVER    

     CHECK POINT  END OF SOLVER       

       ELAPSED USER TIME (SEC)      =   0.0000    
       ELAPSED SYSTEM TIME (SEC)    =   0.0000    
       ELAPSED TOTAL CPU TIME (SEC) =   0.0000    
       ELAPSED WALLCLOCK TIME (SEC) =          0

               CONVERGENCE CHECKS FOR EQUILIBRIUM ITERATION     1


 AVERAGE HEAT FLUX                   164.       TIME AVG. HEAT FLUX    121.    
 LARGEST RESIDUAL HEAT FLUX        -1.500E-05   AT NODE         73   DOF 11
   INSTANCE: SZYNA2D-1                                                                       
 LARGEST INCREMENT OF TEMP.         -5.65       AT NODE        218   DOF 11
   INSTANCE: SZYNA2D-1                                                                       
 LARGEST CORRECTION TO TEMP.        0.186       AT NODE        226   DOF 11
   INSTANCE: SZYNA2D-1                                                                       
 ESTIMATE OF TEMP.    CORRECTION   -2.350E-07
 HEAT FLUX EQUILIB. ACCEPTED BASED ON SMALL RESIDUAL AND ESTIMATED CORRECTION

 MAXIMUM NON-PRESCRIBED INCREMENT IN TEMPERATURE IS   -5.65    

 ITERATION SUMMARY FOR THE INCREMENT:   1 TOTAL ITERATIONS, OF WHICH
   0 ARE SEVERE DISCONTINUITY ITERATIONS AND  1 ARE EQUILIBRIUM ITERATIONS.

 TIME INCREMENT COMPLETED   1.00    ,  FRACTION OF STEP COMPLETED  1.607E-02
 STEP TIME COMPLETED        19.3    ,  TOTAL TIME COMPLETED         19.3    


  INCREMENT    28 STARTS. ATTEMPT NUMBER  1, TIME INCREMENT   1.00    

  NUMBER OF EQUATIONS =      864     NUMBER OF FLOATING PT. OPERATIONS =  2.67E+05

     CHECK POINT   START OF SOLVER    

     CHECK POINT  END OF SOLVER       

       ELAPSED USER TIME (SEC)      =   0.0000    
       ELAPSED SYSTEM TIME (SEC)    =   0.0000    
       ELAPSED TOTAL CPU TIME (SEC) =   0.0000    
       ELAPSED WALLCLOCK TIME (SEC) =          0

               CONVERGENCE CHECKS FOR EQUILIBRIUM ITERATION     1


 AVERAGE HEAT FLUX                   165.       TIME AVG. HEAT FLUX    122.    
 LARGEST RESIDUAL HEAT FLUX        -1.237E-05   AT NODE         73   DOF 11
   INSTANCE: SZYNA2D-1                                                                       
 LARGEST INCREMENT OF TEMP.         -5.49       AT NODE        218   DOF 11
   INSTANCE: SZYNA2D-1                                                                       
 LARGEST CORRECTION TO TEMP.        0.170       AT NODE        226   DOF 11
   INSTANCE: SZYNA2D-1                                                                       
 ESTIMATE OF TEMP.    CORRECTION   -1.926E-07
 HEAT FLUX EQUILIB. ACCEPTED BASED ON SMALL RESIDUAL AND ESTIMATED CORRECTION

 MAXIMUM NON-PRESCRIBED INCREMENT IN TEMPERATURE IS   -5.49    

 ITERATION SUMMARY FOR THE INCREMENT:   1 TOTAL ITERATIONS, OF WHICH
   0 ARE SEVERE DISCONTINUITY ITERATIONS AND  1 ARE EQUILIBRIUM ITERATIONS.

 TIME INCREMENT COMPLETED   1.00    ,  FRACTION OF STEP COMPLETED  1.691E-02
 STEP TIME COMPLETED        20.3    ,  TOTAL TIME COMPLETED         20.3    


  INCREMENT    29 STARTS. ATTEMPT NUMBER  1, TIME INCREMENT   1.00    

  NUMBER OF EQUATIONS =      864     NUMBER OF FLOATING PT. OPERATIONS =  2.67E+05

     CHECK POINT   START OF SOLVER    

     CHECK POINT  END OF SOLVER       

       ELAPSED USER TIME (SEC)      =  0.10000    
       ELAPSED SYSTEM TIME (SEC)    =   0.0000    
       ELAPSED TOTAL CPU TIME (SEC) =  0.10000    
       ELAPSED WALLCLOCK TIME (SEC) =          0

               CONVERGENCE CHECKS FOR EQUILIBRIUM ITERATION     1


 AVERAGE HEAT FLUX                   166.       TIME AVG. HEAT FLUX    124.    
 LARGEST RESIDUAL HEAT FLUX        -1.028E-05   AT NODE         73   DOF 11
   INSTANCE: SZYNA2D-1                                                                       
 LARGEST INCREMENT OF TEMP.         -5.35       AT NODE        829   DOF 11
   INSTANCE: SZYNA2D-1                                                                       
 LARGEST CORRECTION TO TEMP.        0.156       AT NODE        226   DOF 11
   INSTANCE: SZYNA2D-1                                                                       
 ESTIMATE OF TEMP.    CORRECTION   -1.592E-07
 HEAT FLUX EQUILIB. ACCEPTED BASED ON SMALL RESIDUAL AND ESTIMATED CORRECTION

 MAXIMUM NON-PRESCRIBED INCREMENT IN TEMPERATURE IS   -5.35    

 ITERATION SUMMARY FOR THE INCREMENT:   1 TOTAL ITERATIONS, OF WHICH
   0 ARE SEVERE DISCONTINUITY ITERATIONS AND  1 ARE EQUILIBRIUM ITERATIONS.

 TIME INCREMENT COMPLETED   1.00    ,  FRACTION OF STEP COMPLETED  1.774E-02
 STEP TIME COMPLETED        21.3    ,  TOTAL TIME COMPLETED         21.3    


  INCREMENT    30 STARTS. ATTEMPT NUMBER  1, TIME INCREMENT   1.00    

  NUMBER OF EQUATIONS =      864     NUMBER OF FLOATING PT. OPERATIONS =  2.67E+05

     CHECK POINT   START OF SOLVER    

     CHECK POINT  END OF SOLVER       

       ELAPSED USER TIME (SEC)      =   0.0000    
       ELAPSED SYSTEM TIME (SEC)    =   0.0000    
       ELAPSED TOTAL CPU TIME (SEC) =   0.0000    
       ELAPSED WALLCLOCK TIME (SEC) =          0

               CONVERGENCE CHECKS FOR EQUILIBRIUM ITERATION     1


 AVERAGE HEAT FLUX                   166.       TIME AVG. HEAT FLUX    125.    
 LARGEST RESIDUAL HEAT FLUX        -8.608E-06   AT NODE         73   DOF 11
   INSTANCE: SZYNA2D-1                                                                       
 LARGEST INCREMENT OF TEMP.         -5.22       AT NODE        829   DOF 11
   INSTANCE: SZYNA2D-1                                                                       
 LARGEST CORRECTION TO TEMP.        0.144       AT NODE        226   DOF 11
   INSTANCE: SZYNA2D-1                                                                       
 ESTIMATE OF TEMP.    CORRECTION   -1.325E-07
 HEAT FLUX EQUILIB. ACCEPTED BASED ON SMALL RESIDUAL AND ESTIMATED CORRECTION

 MAXIMUM NON-PRESCRIBED INCREMENT IN TEMPERATURE IS   -5.22    

 ITERATION SUMMARY FOR THE INCREMENT:   1 TOTAL ITERATIONS, OF WHICH
   0 ARE SEVERE DISCONTINUITY ITERATIONS AND  1 ARE EQUILIBRIUM ITERATIONS.

 TIME INCREMENT COMPLETED   1.00    ,  FRACTION OF STEP COMPLETED  1.857E-02
 STEP TIME COMPLETED        22.3    ,  TOTAL TIME COMPLETED         22.3    


  INCREMENT    31 STARTS. ATTEMPT NUMBER  1, TIME INCREMENT   1.00    

  NUMBER OF EQUATIONS =      864     NUMBER OF FLOATING PT. OPERATIONS =  2.67E+05

     CHECK POINT   START OF SOLVER    

     CHECK POINT  END OF SOLVER       

       ELAPSED USER TIME (SEC)      =   0.0000    
       ELAPSED SYSTEM TIME (SEC)    =   0.0000    
       ELAPSED TOTAL CPU TIME (SEC) =   0.0000    
       ELAPSED WALLCLOCK TIME (SEC) =          0

               CONVERGENCE CHECKS FOR EQUILIBRIUM ITERATION     1


 AVERAGE HEAT FLUX                   167.       TIME AVG. HEAT FLUX    127.    
 LARGEST RESIDUAL HEAT FLUX        -7.255E-06   AT NODE         73   DOF 11
   INSTANCE: SZYNA2D-1                                                                       
 LARGEST INCREMENT OF TEMP.         -5.11       AT NODE        587   DOF 11
   INSTANCE: SZYNA2D-1                                                                       
 LARGEST CORRECTION TO TEMP.        0.133       AT NODE        226   DOF 11
   INSTANCE: SZYNA2D-1                                                                       
 ESTIMATE OF TEMP.    CORRECTION   -1.111E-07
 HEAT FLUX EQUILIB. ACCEPTED BASED ON SMALL RESIDUAL AND ESTIMATED CORRECTION

 MAXIMUM NON-PRESCRIBED INCREMENT IN TEMPERATURE IS   -5.11    

 ITERATION SUMMARY FOR THE INCREMENT:   1 TOTAL ITERATIONS, OF WHICH
   0 ARE SEVERE DISCONTINUITY ITERATIONS AND  1 ARE EQUILIBRIUM ITERATIONS.

 TIME INCREMENT COMPLETED   1.00    ,  FRACTION OF STEP COMPLETED  1.941E-02
 STEP TIME COMPLETED        23.3    ,  TOTAL TIME COMPLETED         23.3    


  INCREMENT    32 STARTS. ATTEMPT NUMBER  1, TIME INCREMENT   1.00    

  NUMBER OF EQUATIONS =      864     NUMBER OF FLOATING PT. OPERATIONS =  2.67E+05

     CHECK POINT   START OF SOLVER    

     CHECK POINT  END OF SOLVER       

       ELAPSED USER TIME (SEC)      =   0.0000    
       ELAPSED SYSTEM TIME (SEC)    =   0.0000    
       ELAPSED TOTAL CPU TIME (SEC) =   0.0000    
       ELAPSED WALLCLOCK TIME (SEC) =          0

               CONVERGENCE CHECKS FOR EQUILIBRIUM ITERATION     1


 AVERAGE HEAT FLUX                   168.       TIME AVG. HEAT FLUX    128.    
 LARGEST RESIDUAL HEAT FLUX        -6.155E-06   AT NODE         73   DOF 11
   INSTANCE: SZYNA2D-1                                                                       
 LARGEST INCREMENT OF TEMP.         -5.01       AT NODE        587   DOF 11
   INSTANCE: SZYNA2D-1                                                                       
 LARGEST CORRECTION TO TEMP.        0.123       AT NODE        226   DOF 11
   INSTANCE: SZYNA2D-1                                                                       
 ESTIMATE OF TEMP.    CORRECTION   -9.375E-08
 HEAT FLUX EQUILIB. ACCEPTED BASED ON SMALL RESIDUAL AND ESTIMATED CORRECTION

 MAXIMUM NON-PRESCRIBED INCREMENT IN TEMPERATURE IS   -5.01    

 ITERATION SUMMARY FOR THE INCREMENT:   1 TOTAL ITERATIONS, OF WHICH
   0 ARE SEVERE DISCONTINUITY ITERATIONS AND  1 ARE EQUILIBRIUM ITERATIONS.

 TIME INCREMENT COMPLETED   1.00    ,  FRACTION OF STEP COMPLETED  2.024E-02
 STEP TIME COMPLETED        24.3    ,  TOTAL TIME COMPLETED         24.3    


  INCREMENT    33 STARTS. ATTEMPT NUMBER  1, TIME INCREMENT   1.00    

  NUMBER OF EQUATIONS =      864     NUMBER OF FLOATING PT. OPERATIONS =  2.67E+05

     CHECK POINT   START OF SOLVER    

     CHECK POINT  END OF SOLVER       

       ELAPSED USER TIME (SEC)      =   0.0000    
       ELAPSED SYSTEM TIME (SEC)    =   0.0000    
       ELAPSED TOTAL CPU TIME (SEC) =   0.0000    
       ELAPSED WALLCLOCK TIME (SEC) =          0

               CONVERGENCE CHECKS FOR EQUILIBRIUM ITERATION     1


 AVERAGE HEAT FLUX                   168.       TIME AVG. HEAT FLUX    129.    
 LARGEST RESIDUAL HEAT FLUX        -5.255E-06   AT NODE         73   DOF 11
   INSTANCE: SZYNA2D-1                                                                       
 LARGEST INCREMENT OF TEMP.         -4.91       AT NODE        587   DOF 11
   INSTANCE: SZYNA2D-1                                                                       
 LARGEST CORRECTION TO TEMP.        0.114       AT NODE        226   DOF 11
   INSTANCE: SZYNA2D-1                                                                       
 ESTIMATE OF TEMP.    CORRECTION   -7.966E-08
 HEAT FLUX EQUILIB. ACCEPTED BASED ON SMALL RESIDUAL AND ESTIMATED CORRECTION

 MAXIMUM NON-PRESCRIBED INCREMENT IN TEMPERATURE IS   -4.91    

 ITERATION SUMMARY FOR THE INCREMENT:   1 TOTAL ITERATIONS, OF WHICH
   0 ARE SEVERE DISCONTINUITY ITERATIONS AND  1 ARE EQUILIBRIUM ITERATIONS.

 TIME INCREMENT COMPLETED   1.00    ,  FRACTION OF STEP COMPLETED  2.107E-02
 STEP TIME COMPLETED        25.3    ,  TOTAL TIME COMPLETED         25.3    


  INCREMENT    34 STARTS. ATTEMPT NUMBER  1, TIME INCREMENT   1.00    

  NUMBER OF EQUATIONS =      864     NUMBER OF FLOATING PT. OPERATIONS =  2.67E+05

     CHECK POINT   START OF SOLVER    

     CHECK POINT  END OF SOLVER       

       ELAPSED USER TIME (SEC)      =   0.0000    
       ELAPSED SYSTEM TIME (SEC)    =   0.0000    
       ELAPSED TOTAL CPU TIME (SEC) =   0.0000    
       ELAPSED WALLCLOCK TIME (SEC) =          0

               CONVERGENCE CHECKS FOR EQUILIBRIUM ITERATION     1


 AVERAGE HEAT FLUX                   169.       TIME AVG. HEAT FLUX    130.    
 LARGEST RESIDUAL HEAT FLUX        -4.514E-06   AT NODE         73   DOF 11
   INSTANCE: SZYNA2D-1                                                                       
 LARGEST INCREMENT OF TEMP.         -4.83       AT NODE        747   DOF 11
   INSTANCE: SZYNA2D-1                                                                       
 LARGEST CORRECTION TO TEMP.        0.107       AT NODE        226   DOF 11
   INSTANCE: SZYNA2D-1                                                                       
 ESTIMATE OF TEMP.    CORRECTION   -6.811E-08
 HEAT FLUX EQUILIB. ACCEPTED BASED ON SMALL RESIDUAL AND ESTIMATED CORRECTION

 MAXIMUM NON-PRESCRIBED INCREMENT IN TEMPERATURE IS   -4.83    

 ITERATION SUMMARY FOR THE INCREMENT:   1 TOTAL ITERATIONS, OF WHICH
   0 ARE SEVERE DISCONTINUITY ITERATIONS AND  1 ARE EQUILIBRIUM ITERATIONS.

 TIME INCREMENT COMPLETED   1.00    ,  FRACTION OF STEP COMPLETED  2.191E-02
 STEP TIME COMPLETED        26.3    ,  TOTAL TIME COMPLETED         26.3    


  INCREMENT    35 STARTS. ATTEMPT NUMBER  1, TIME INCREMENT   1.00    

  NUMBER OF EQUATIONS =      864     NUMBER OF FLOATING PT. OPERATIONS =  2.67E+05

     CHECK POINT   START OF SOLVER    

     CHECK POINT  END OF SOLVER       

       ELAPSED USER TIME (SEC)      =   0.0000    
       ELAPSED SYSTEM TIME (SEC)    =   0.0000    
       ELAPSED TOTAL CPU TIME (SEC) =   0.0000    
       ELAPSED WALLCLOCK TIME (SEC) =          0

               CONVERGENCE CHECKS FOR EQUILIBRIUM ITERATION     1


 AVERAGE HEAT FLUX                   169.       TIME AVG. HEAT FLUX    131.    
 LARGEST RESIDUAL HEAT FLUX        -3.902E-06   AT NODE         72   DOF 11
   INSTANCE: SZYNA2D-1                                                                       
 LARGEST INCREMENT OF TEMP.         -4.75       AT NODE        704   DOF 11
   INSTANCE: SZYNA2D-1                                                                       
 LARGEST CORRECTION TO TEMP.        9.971E-02   AT NODE        226   DOF 11
   INSTANCE: SZYNA2D-1                                                                       
 ESTIMATE OF TEMP.    CORRECTION   -5.863E-08
 HEAT FLUX EQUILIB. ACCEPTED BASED ON SMALL RESIDUAL AND ESTIMATED CORRECTION

 MAXIMUM NON-PRESCRIBED INCREMENT IN TEMPERATURE IS   -4.75    

 ITERATION SUMMARY FOR THE INCREMENT:   1 TOTAL ITERATIONS, OF WHICH
   0 ARE SEVERE DISCONTINUITY ITERATIONS AND  1 ARE EQUILIBRIUM ITERATIONS.

 TIME INCREMENT COMPLETED   1.00    ,  FRACTION OF STEP COMPLETED  2.274E-02
 STEP TIME COMPLETED        27.3    ,  TOTAL TIME COMPLETED         27.3    


  INCREMENT    36 STARTS. ATTEMPT NUMBER  1, TIME INCREMENT   1.00    

  NUMBER OF EQUATIONS =      864     NUMBER OF FLOATING PT. OPERATIONS =  2.67E+05

     CHECK POINT   START OF SOLVER    

     CHECK POINT  END OF SOLVER       

       ELAPSED USER TIME (SEC)      =   0.0000    
       ELAPSED SYSTEM TIME (SEC)    =   0.0000    
       ELAPSED TOTAL CPU TIME (SEC) =   0.0000    
       ELAPSED WALLCLOCK TIME (SEC) =          0

               CONVERGENCE CHECKS FOR EQUILIBRIUM ITERATION     1


 AVERAGE HEAT FLUX                   169.       TIME AVG. HEAT FLUX    132.    
 LARGEST RESIDUAL HEAT FLUX        -3.397E-06   AT NODE         72   DOF 11
   INSTANCE: SZYNA2D-1                                                                       
 LARGEST INCREMENT OF TEMP.         -4.68       AT NODE        704   DOF 11
   INSTANCE: SZYNA2D-1                                                                       
 LARGEST CORRECTION TO TEMP.        9.355E-02   AT NODE        347   DOF 11
   INSTANCE: SZYNA2D-1                                                                       
 ESTIMATE OF TEMP.    CORRECTION   -5.087E-08
 HEAT FLUX EQUILIB. ACCEPTED BASED ON SMALL RESIDUAL AND ESTIMATED CORRECTION

 MAXIMUM NON-PRESCRIBED INCREMENT IN TEMPERATURE IS   -4.68    

 ITERATION SUMMARY FOR THE INCREMENT:   1 TOTAL ITERATIONS, OF WHICH
   0 ARE SEVERE DISCONTINUITY ITERATIONS AND  1 ARE EQUILIBRIUM ITERATIONS.

 TIME INCREMENT COMPLETED   1.00    ,  FRACTION OF STEP COMPLETED  2.357E-02
 STEP TIME COMPLETED        28.3    ,  TOTAL TIME COMPLETED         28.3    


  INCREMENT    37 STARTS. ATTEMPT NUMBER  1, TIME INCREMENT   1.00    

  NUMBER OF EQUATIONS =      864     NUMBER OF FLOATING PT. OPERATIONS =  2.67E+05

     CHECK POINT   START OF SOLVER    

     CHECK POINT  END OF SOLVER       

       ELAPSED USER TIME (SEC)      =   0.0000    
       ELAPSED SYSTEM TIME (SEC)    =   0.0000    
       ELAPSED TOTAL CPU TIME (SEC) =   0.0000    
       ELAPSED WALLCLOCK TIME (SEC) =          0

               CONVERGENCE CHECKS FOR EQUILIBRIUM ITERATION     1


 AVERAGE HEAT FLUX                   170.       TIME AVG. HEAT FLUX    133.    
 LARGEST RESIDUAL HEAT FLUX        -2.973E-06   AT NODE         72   DOF 11
   INSTANCE: SZYNA2D-1                                                                       
 LARGEST INCREMENT OF TEMP.         -4.61       AT NODE        213   DOF 11
   INSTANCE: SZYNA2D-1                                                                       
 LARGEST CORRECTION TO TEMP.        8.804E-02   AT NODE        347   DOF 11
   INSTANCE: SZYNA2D-1                                                                       
 ESTIMATE OF TEMP.    CORRECTION   -4.440E-08
 HEAT FLUX EQUILIB. ACCEPTED BASED ON SMALL RESIDUAL AND ESTIMATED CORRECTION

 MAXIMUM NON-PRESCRIBED INCREMENT IN TEMPERATURE IS   -4.61    

 ITERATION SUMMARY FOR THE INCREMENT:   1 TOTAL ITERATIONS, OF WHICH
   0 ARE SEVERE DISCONTINUITY ITERATIONS AND  1 ARE EQUILIBRIUM ITERATIONS.

 TIME INCREMENT COMPLETED   1.00    ,  FRACTION OF STEP COMPLETED  2.441E-02
 STEP TIME COMPLETED        29.3    ,  TOTAL TIME COMPLETED         29.3    


  INCREMENT    38 STARTS. ATTEMPT NUMBER  1, TIME INCREMENT   1.00    

  NUMBER OF EQUATIONS =      864     NUMBER OF FLOATING PT. OPERATIONS =  2.67E+05

     CHECK POINT   START OF SOLVER    

     CHECK POINT  END OF SOLVER       

       ELAPSED USER TIME (SEC)      =   0.0000    
       ELAPSED SYSTEM TIME (SEC)    =   0.0000    
       ELAPSED TOTAL CPU TIME (SEC) =   0.0000    
       ELAPSED WALLCLOCK TIME (SEC) =          0

               CONVERGENCE CHECKS FOR EQUILIBRIUM ITERATION     1


 AVERAGE HEAT FLUX                   170.       TIME AVG. HEAT FLUX    134.    
 LARGEST RESIDUAL HEAT FLUX        -2.616E-06   AT NODE         72   DOF 11
   INSTANCE: SZYNA2D-1                                                                       
 LARGEST INCREMENT OF TEMP.         -4.55       AT NODE        695   DOF 11
   INSTANCE: SZYNA2D-1                                                                       
 LARGEST CORRECTION TO TEMP.        8.307E-02   AT NODE        816   DOF 11
   INSTANCE: SZYNA2D-1                                                                       
 ESTIMATE OF TEMP.    CORRECTION   -3.896E-08
 HEAT FLUX EQUILIB. ACCEPTED BASED ON SMALL RESIDUAL AND ESTIMATED CORRECTION

 MAXIMUM NON-PRESCRIBED INCREMENT IN TEMPERATURE IS   -4.55    

 ITERATION SUMMARY FOR THE INCREMENT:   1 TOTAL ITERATIONS, OF WHICH
   0 ARE SEVERE DISCONTINUITY ITERATIONS AND  1 ARE EQUILIBRIUM ITERATIONS.

 TIME INCREMENT COMPLETED   1.00    ,  FRACTION OF STEP COMPLETED  2.524E-02
 STEP TIME COMPLETED        30.3    ,  TOTAL TIME COMPLETED         30.3    


  INCREMENT    39 STARTS. ATTEMPT NUMBER  1, TIME INCREMENT   1.00    

  NUMBER OF EQUATIONS =      864     NUMBER OF FLOATING PT. OPERATIONS =  2.67E+05

     CHECK POINT   START OF SOLVER    

     CHECK POINT  END OF SOLVER       

       ELAPSED USER TIME (SEC)      =   0.0000    
       ELAPSED SYSTEM TIME (SEC)    =   0.0000    
       ELAPSED TOTAL CPU TIME (SEC) =   0.0000    
       ELAPSED WALLCLOCK TIME (SEC) =          0

               CONVERGENCE CHECKS FOR EQUILIBRIUM ITERATION     1


 AVERAGE HEAT FLUX                   170.       TIME AVG. HEAT FLUX    135.    
 LARGEST RESIDUAL HEAT FLUX        -2.313E-06   AT NODE         72   DOF 11
   INSTANCE: SZYNA2D-1                                                                       
 LARGEST INCREMENT OF TEMP.         -4.49       AT NODE        212   DOF 11
   INSTANCE: SZYNA2D-1                                                                       
 LARGEST CORRECTION TO TEMP.        7.862E-02   AT NODE        816   DOF 11
   INSTANCE: SZYNA2D-1                                                                       
 ESTIMATE OF TEMP.    CORRECTION   -3.440E-08
 HEAT FLUX EQUILIB. ACCEPTED BASED ON SMALL RESIDUAL AND ESTIMATED CORRECTION

 MAXIMUM NON-PRESCRIBED INCREMENT IN TEMPERATURE IS   -4.49    

 ITERATION SUMMARY FOR THE INCREMENT:   1 TOTAL ITERATIONS, OF WHICH
   0 ARE SEVERE DISCONTINUITY ITERATIONS AND  1 ARE EQUILIBRIUM ITERATIONS.

 TIME INCREMENT COMPLETED   1.00    ,  FRACTION OF STEP COMPLETED  2.608E-02
 STEP TIME COMPLETED        31.3    ,  TOTAL TIME COMPLETED         31.3    


  INCREMENT    40 STARTS. ATTEMPT NUMBER  1, TIME INCREMENT   1.00    

  NUMBER OF EQUATIONS =      864     NUMBER OF FLOATING PT. OPERATIONS =  2.67E+05

     CHECK POINT   START OF SOLVER    

     CHECK POINT  END OF SOLVER       

       ELAPSED USER TIME (SEC)      =   0.0000    
       ELAPSED SYSTEM TIME (SEC)    =   0.0000    
       ELAPSED TOTAL CPU TIME (SEC) =   0.0000    
       ELAPSED WALLCLOCK TIME (SEC) =          0

               CONVERGENCE CHECKS FOR EQUILIBRIUM ITERATION     1


 AVERAGE HEAT FLUX                   170.       TIME AVG. HEAT FLUX    136.    
 LARGEST RESIDUAL HEAT FLUX        -2.068E-06   AT NODE         62   DOF 11
   INSTANCE: SZYNA2D-1                                                                       
 LARGEST INCREMENT OF TEMP.         -4.43       AT NODE        696   DOF 11
   INSTANCE: SZYNA2D-1                                                                       
 LARGEST CORRECTION TO TEMP.        7.457E-02   AT NODE        816   DOF 11
   INSTANCE: SZYNA2D-1                                                                       
 ESTIMATE OF TEMP.    CORRECTION   -3.071E-08
 HEAT FLUX EQUILIB. ACCEPTED BASED ON SMALL RESIDUAL AND ESTIMATED CORRECTION

 MAXIMUM NON-PRESCRIBED INCREMENT IN TEMPERATURE IS   -4.43    

 ITERATION SUMMARY FOR THE INCREMENT:   1 TOTAL ITERATIONS, OF WHICH
   0 ARE SEVERE DISCONTINUITY ITERATIONS AND  1 ARE EQUILIBRIUM ITERATIONS.

 TIME INCREMENT COMPLETED   1.00    ,  FRACTION OF STEP COMPLETED  2.691E-02
 STEP TIME COMPLETED        32.3    ,  TOTAL TIME COMPLETED         32.3    


  INCREMENT    41 STARTS. ATTEMPT NUMBER  1, TIME INCREMENT   1.00    

  NUMBER OF EQUATIONS =      864     NUMBER OF FLOATING PT. OPERATIONS =  2.67E+05

     CHECK POINT   START OF SOLVER    

     CHECK POINT  END OF SOLVER       

       ELAPSED USER TIME (SEC)      =   0.0000    
       ELAPSED SYSTEM TIME (SEC)    =   0.0000    
       ELAPSED TOTAL CPU TIME (SEC) =   0.0000    
       ELAPSED WALLCLOCK TIME (SEC) =          0

               CONVERGENCE CHECKS FOR EQUILIBRIUM ITERATION     1


 AVERAGE HEAT FLUX                   171.       TIME AVG. HEAT FLUX    137.    
 LARGEST RESIDUAL HEAT FLUX        -1.857E-06   AT NODE         62   DOF 11
   INSTANCE: SZYNA2D-1                                                                       
 LARGEST INCREMENT OF TEMP.         -4.38       AT NODE        696   DOF 11
   INSTANCE: SZYNA2D-1                                                                       
 LARGEST CORRECTION TO TEMP.        7.088E-02   AT NODE        816   DOF 11
   INSTANCE: SZYNA2D-1                                                                       
 ESTIMATE OF TEMP.    CORRECTION   -2.755E-08
 HEAT FLUX EQUILIB. ACCEPTED BASED ON SMALL RESIDUAL AND ESTIMATED CORRECTION

 MAXIMUM NON-PRESCRIBED INCREMENT IN TEMPERATURE IS   -4.38    

 ITERATION SUMMARY FOR THE INCREMENT:   1 TOTAL ITERATIONS, OF WHICH
   0 ARE SEVERE DISCONTINUITY ITERATIONS AND  1 ARE EQUILIBRIUM ITERATIONS.

 TIME INCREMENT COMPLETED   1.00    ,  FRACTION OF STEP COMPLETED  2.774E-02
 STEP TIME COMPLETED        33.3    ,  TOTAL TIME COMPLETED         33.3    


  INCREMENT    42 STARTS. ATTEMPT NUMBER  1, TIME INCREMENT   1.00    

  NUMBER OF EQUATIONS =      864     NUMBER OF FLOATING PT. OPERATIONS =  2.67E+05

     CHECK POINT   START OF SOLVER    

     CHECK POINT  END OF SOLVER       

       ELAPSED USER TIME (SEC)      =   0.0000    
       ELAPSED SYSTEM TIME (SEC)    =   0.0000    
       ELAPSED TOTAL CPU TIME (SEC) =   0.0000    
       ELAPSED WALLCLOCK TIME (SEC) =          0

               CONVERGENCE CHECKS FOR EQUILIBRIUM ITERATION     1


 AVERAGE HEAT FLUX                   171.       TIME AVG. HEAT FLUX    138.    
 LARGEST RESIDUAL HEAT FLUX        -1.677E-06   AT NODE        284   DOF 11
   INSTANCE: SZYNA2D-1                                                                       
 LARGEST INCREMENT OF TEMP.         -4.33       AT NODE        696   DOF 11
   INSTANCE: SZYNA2D-1                                                                       
 LARGEST CORRECTION TO TEMP.        6.750E-02   AT NODE        816   DOF 11
   INSTANCE: SZYNA2D-1                                                                       
 ESTIMATE OF TEMP.    CORRECTION   -2.484E-08
 HEAT FLUX EQUILIB. ACCEPTED BASED ON SMALL RESIDUAL AND ESTIMATED CORRECTION

 MAXIMUM NON-PRESCRIBED INCREMENT IN TEMPERATURE IS   -4.33    

 ITERATION SUMMARY FOR THE INCREMENT:   1 TOTAL ITERATIONS, OF WHICH
   0 ARE SEVERE DISCONTINUITY ITERATIONS AND  1 ARE EQUILIBRIUM ITERATIONS.

 TIME INCREMENT COMPLETED   1.00    ,  FRACTION OF STEP COMPLETED  2.857E-02
 STEP TIME COMPLETED        34.3    ,  TOTAL TIME COMPLETED         34.3    


  INCREMENT    43 STARTS. ATTEMPT NUMBER  1, TIME INCREMENT   1.00    

  NUMBER OF EQUATIONS =      864     NUMBER OF FLOATING PT. OPERATIONS =  2.67E+05

     CHECK POINT   START OF SOLVER    

     CHECK POINT  END OF SOLVER       

       ELAPSED USER TIME (SEC)      =   0.0000    
       ELAPSED SYSTEM TIME (SEC)    =   0.0000    
       ELAPSED TOTAL CPU TIME (SEC) =   0.0000    
       ELAPSED WALLCLOCK TIME (SEC) =          0

               CONVERGENCE CHECKS FOR EQUILIBRIUM ITERATION     1


 AVERAGE HEAT FLUX                   171.       TIME AVG. HEAT FLUX    139.    
 LARGEST RESIDUAL HEAT FLUX        -1.524E-06   AT NODE        284   DOF 11
   INSTANCE: SZYNA2D-1                                                                       
 LARGEST INCREMENT OF TEMP.         -4.27       AT NODE        696   DOF 11
   INSTANCE: SZYNA2D-1                                                                       
 LARGEST CORRECTION TO TEMP.        6.443E-02   AT NODE        485   DOF 11
   INSTANCE: SZYNA2D-1                                                                       
 ESTIMATE OF TEMP.    CORRECTION   -2.256E-08
 HEAT FLUX EQUILIB. ACCEPTED BASED ON SMALL RESIDUAL AND ESTIMATED CORRECTION

 MAXIMUM NON-PRESCRIBED INCREMENT IN TEMPERATURE IS   -4.27    

 ITERATION SUMMARY FOR THE INCREMENT:   1 TOTAL ITERATIONS, OF WHICH
   0 ARE SEVERE DISCONTINUITY ITERATIONS AND  1 ARE EQUILIBRIUM ITERATIONS.

 TIME INCREMENT COMPLETED   1.00    ,  FRACTION OF STEP COMPLETED  2.941E-02
 STEP TIME COMPLETED        35.3    ,  TOTAL TIME COMPLETED         35.3    


  INCREMENT    44 STARTS. ATTEMPT NUMBER  1, TIME INCREMENT   1.00    

  NUMBER OF EQUATIONS =      864     NUMBER OF FLOATING PT. OPERATIONS =  2.67E+05

     CHECK POINT   START OF SOLVER    

     CHECK POINT  END OF SOLVER       

       ELAPSED USER TIME (SEC)      =   0.0000    
       ELAPSED SYSTEM TIME (SEC)    =   0.0000    
       ELAPSED TOTAL CPU TIME (SEC) =   0.0000    
       ELAPSED WALLCLOCK TIME (SEC) =          0

               CONVERGENCE CHECKS FOR EQUILIBRIUM ITERATION     1


 AVERAGE HEAT FLUX                   171.       TIME AVG. HEAT FLUX    139.    
 LARGEST RESIDUAL HEAT FLUX        -1.390E-06   AT NODE        284   DOF 11
   INSTANCE: SZYNA2D-1                                                                       
 LARGEST INCREMENT OF TEMP.         -4.22       AT NODE        732   DOF 11
   INSTANCE: SZYNA2D-1                                                                       
 LARGEST CORRECTION TO TEMP.        6.169E-02   AT NODE        225   DOF 11
   INSTANCE: SZYNA2D-1                                                                       
          THE HEAT FLUX EQUILIBRIUM RESPONSE WAS LINEAR IN THIS INCREMENT

 MAXIMUM NON-PRESCRIBED INCREMENT IN TEMPERATURE IS   -4.22    

 ITERATION SUMMARY FOR THE INCREMENT:   1 TOTAL ITERATIONS, OF WHICH
   0 ARE SEVERE DISCONTINUITY ITERATIONS AND  1 ARE EQUILIBRIUM ITERATIONS.

 TIME INCREMENT COMPLETED   1.00    ,  FRACTION OF STEP COMPLETED  3.024E-02
 STEP TIME COMPLETED        36.3    ,  TOTAL TIME COMPLETED         36.3    


  INCREMENT    45 STARTS. ATTEMPT NUMBER  1, TIME INCREMENT   1.00    

  NUMBER OF EQUATIONS =      864     NUMBER OF FLOATING PT. OPERATIONS =  2.67E+05

     CHECK POINT   START OF SOLVER    

     CHECK POINT  END OF SOLVER       

       ELAPSED USER TIME (SEC)      =   0.0000    
       ELAPSED SYSTEM TIME (SEC)    =   0.0000    
       ELAPSED TOTAL CPU TIME (SEC) =   0.0000    
       ELAPSED WALLCLOCK TIME (SEC) =          0

               CONVERGENCE CHECKS FOR EQUILIBRIUM ITERATION     1


 AVERAGE HEAT FLUX                   171.       TIME AVG. HEAT FLUX    140.    
 LARGEST RESIDUAL HEAT FLUX         1.706E-04   AT NODE        283   DOF 11
   INSTANCE: SZYNA2D-1                                                                       
 LARGEST INCREMENT OF TEMP.         -4.18       AT NODE        732   DOF 11
   INSTANCE: SZYNA2D-1                                                                       
 LARGEST CORRECTION TO TEMP.        5.918E-02   AT NODE        225   DOF 11
   INSTANCE: SZYNA2D-1                                                                       
 ESTIMATE OF TEMP.    CORRECTION    2.529E-06
 HEAT FLUX EQUILIB. ACCEPTED BASED ON SMALL RESIDUAL AND ESTIMATED CORRECTION

 MAXIMUM NON-PRESCRIBED INCREMENT IN TEMPERATURE IS   -4.18    

 ITERATION SUMMARY FOR THE INCREMENT:   1 TOTAL ITERATIONS, OF WHICH
   0 ARE SEVERE DISCONTINUITY ITERATIONS AND  1 ARE EQUILIBRIUM ITERATIONS.

 TIME INCREMENT COMPLETED   1.00    ,  FRACTION OF STEP COMPLETED  3.107E-02
 STEP TIME COMPLETED        37.3    ,  TOTAL TIME COMPLETED         37.3    


  INCREMENT    46 STARTS. ATTEMPT NUMBER  1, TIME INCREMENT   1.00    

  NUMBER OF EQUATIONS =      864     NUMBER OF FLOATING PT. OPERATIONS =  2.67E+05

     CHECK POINT   START OF SOLVER    

     CHECK POINT  END OF SOLVER       

       ELAPSED USER TIME (SEC)      =   0.0000    
       ELAPSED SYSTEM TIME (SEC)    =   0.0000    
       ELAPSED TOTAL CPU TIME (SEC) =   0.0000    
       ELAPSED WALLCLOCK TIME (SEC) =          0

               CONVERGENCE CHECKS FOR EQUILIBRIUM ITERATION     1


 AVERAGE HEAT FLUX                   171.       TIME AVG. HEAT FLUX    141.    
 LARGEST RESIDUAL HEAT FLUX        -1.166E-06   AT NODE        284   DOF 11
   INSTANCE: SZYNA2D-1                                                                       
 LARGEST INCREMENT OF TEMP.         -4.13       AT NODE        732   DOF 11
   INSTANCE: SZYNA2D-1                                                                       
 LARGEST CORRECTION TO TEMP.        5.688E-02   AT NODE        218   DOF 11
   INSTANCE: SZYNA2D-1                                                                       
          THE HEAT FLUX EQUILIBRIUM RESPONSE WAS LINEAR IN THIS INCREMENT

 MAXIMUM NON-PRESCRIBED INCREMENT IN TEMPERATURE IS   -4.13    

 ITERATION SUMMARY FOR THE INCREMENT:   1 TOTAL ITERATIONS, OF WHICH
   0 ARE SEVERE DISCONTINUITY ITERATIONS AND  1 ARE EQUILIBRIUM ITERATIONS.

 TIME INCREMENT COMPLETED   1.00    ,  FRACTION OF STEP COMPLETED  3.191E-02
 STEP TIME COMPLETED        38.3    ,  TOTAL TIME COMPLETED         38.3    


  INCREMENT    47 STARTS. ATTEMPT NUMBER  1, TIME INCREMENT   1.00    

  NUMBER OF EQUATIONS =      864     NUMBER OF FLOATING PT. OPERATIONS =  2.67E+05

     CHECK POINT   START OF SOLVER    

     CHECK POINT  END OF SOLVER       

       ELAPSED USER TIME (SEC)      =   0.0000    
       ELAPSED SYSTEM TIME (SEC)    =   0.0000    
       ELAPSED TOTAL CPU TIME (SEC) =   0.0000    
       ELAPSED WALLCLOCK TIME (SEC) =          0

               CONVERGENCE CHECKS FOR EQUILIBRIUM ITERATION     1


 AVERAGE HEAT FLUX                   171.       TIME AVG. HEAT FLUX    141.    
 LARGEST RESIDUAL HEAT FLUX         1.534E-04   AT NODE         67   DOF 11
   INSTANCE: SZYNA2D-1                                                                       
 LARGEST INCREMENT OF TEMP.         -4.09       AT NODE        732   DOF 11
   INSTANCE: SZYNA2D-1                                                                       
 LARGEST CORRECTION TO TEMP.        5.475E-02   AT NODE        218   DOF 11
   INSTANCE: SZYNA2D-1                                                                       
[...]

 ITERATION SUMMARY FOR THE INCREMENT:   1 TOTAL ITERATIONS, OF WHICH
   0 ARE SEVERE DISCONTINUITY ITERATIONS AND  1 ARE EQUILIBRIUM ITERATIONS.

 TIME INCREMENT COMPLETED   1.00    ,  FRACTION OF STEP COMPLETED  0.990    
 STEP TIME COMPLETED       1.188E+03,  TOTAL TIME COMPLETED        1.188E+03


  INCREMENT  1197 STARTS. ATTEMPT NUMBER  1, TIME INCREMENT   1.00    

  NUMBER OF EQUATIONS =      864     NUMBER OF FLOATING PT. OPERATIONS =  2.67E+05

     CHECK POINT   START OF SOLVER    

     CHECK POINT  END OF SOLVER       

       ELAPSED USER TIME (SEC)      =   0.0000    
       ELAPSED SYSTEM TIME (SEC)    =   0.0000    
       ELAPSED TOTAL CPU TIME (SEC) =   0.0000    
       ELAPSED WALLCLOCK TIME (SEC) =          0

               CONVERGENCE CHECKS FOR EQUILIBRIUM ITERATION     1


 AVERAGE HEAT FLUX                   5.15       TIME AVG. HEAT FLUX    51.5    
 LARGEST RESIDUAL HEAT FLUX         2.497E-07   AT NODE        320   DOF 11
   INSTANCE: SZYNA2D-1                                                                       
 LARGEST INCREMENT OF TEMP.        -0.145       AT NODE        557   DOF 11
   INSTANCE: SZYNA2D-1                                                                       
 LARGEST CORRECTION TO TEMP.        1.892E-04   AT NODE        127   DOF 11
   INSTANCE: SZYNA2D-1                                                                       
          THE HEAT FLUX EQUILIBRIUM RESPONSE WAS LINEAR IN THIS INCREMENT

 MAXIMUM NON-PRESCRIBED INCREMENT IN TEMPERATURE IS  -0.145    

 ITERATION SUMMARY FOR THE INCREMENT:   1 TOTAL ITERATIONS, OF WHICH
   0 ARE SEVERE DISCONTINUITY ITERATIONS AND  1 ARE EQUILIBRIUM ITERATIONS.

 TIME INCREMENT COMPLETED   1.00    ,  FRACTION OF STEP COMPLETED  0.991    
 STEP TIME COMPLETED       1.189E+03,  TOTAL TIME COMPLETED        1.189E+03


  INCREMENT  1198 STARTS. ATTEMPT NUMBER  1, TIME INCREMENT   1.00    

  NUMBER OF EQUATIONS =      864     NUMBER OF FLOATING PT. OPERATIONS =  2.67E+05

     CHECK POINT   START OF SOLVER    

     CHECK POINT  END OF SOLVER       

       ELAPSED USER TIME (SEC)      =   0.0000    
       ELAPSED SYSTEM TIME (SEC)    =   0.0000    
       ELAPSED TOTAL CPU TIME (SEC) =   0.0000    
       ELAPSED WALLCLOCK TIME (SEC) =          1

               CONVERGENCE CHECKS FOR EQUILIBRIUM ITERATION     1


 AVERAGE HEAT FLUX                   5.14       TIME AVG. HEAT FLUX    51.5    
 LARGEST RESIDUAL HEAT FLUX         2.589E-07   AT NODE        320   DOF 11
   INSTANCE: SZYNA2D-1                                                                       
 LARGEST INCREMENT OF TEMP.        -0.145       AT NODE        557   DOF 11
   INSTANCE: SZYNA2D-1                                                                       
 LARGEST CORRECTION TO TEMP.        1.888E-04   AT NODE        127   DOF 11
   INSTANCE: SZYNA2D-1                                                                       
          THE HEAT FLUX EQUILIBRIUM RESPONSE WAS LINEAR IN THIS INCREMENT

 MAXIMUM NON-PRESCRIBED INCREMENT IN TEMPERATURE IS  -0.145    

 ITERATION SUMMARY FOR THE INCREMENT:   1 TOTAL ITERATIONS, OF WHICH
   0 ARE SEVERE DISCONTINUITY ITERATIONS AND  1 ARE EQUILIBRIUM ITERATIONS.

 TIME INCREMENT COMPLETED   1.00    ,  FRACTION OF STEP COMPLETED  0.992    
 STEP TIME COMPLETED       1.190E+03,  TOTAL TIME COMPLETED        1.190E+03


  INCREMENT  1199 STARTS. ATTEMPT NUMBER  1, TIME INCREMENT   1.00    

  NUMBER OF EQUATIONS =      864     NUMBER OF FLOATING PT. OPERATIONS =  2.67E+05

     CHECK POINT   START OF SOLVER    

     CHECK POINT  END OF SOLVER       

       ELAPSED USER TIME (SEC)      =  0.10000    
       ELAPSED SYSTEM TIME (SEC)    =   0.0000    
       ELAPSED TOTAL CPU TIME (SEC) =  0.10000    
       ELAPSED WALLCLOCK TIME (SEC) =          0

               CONVERGENCE CHECKS FOR EQUILIBRIUM ITERATION     1


 AVERAGE HEAT FLUX                   5.13       TIME AVG. HEAT FLUX    51.5    
 LARGEST RESIDUAL HEAT FLUX         2.680E-07   AT NODE        320   DOF 11
   INSTANCE: SZYNA2D-1                                                                       
 LARGEST INCREMENT OF TEMP.        -0.145       AT NODE        557   DOF 11
   INSTANCE: SZYNA2D-1                                                                       
 LARGEST CORRECTION TO TEMP.        1.885E-04   AT NODE        127   DOF 11
   INSTANCE: SZYNA2D-1                                                                       
          THE HEAT FLUX EQUILIBRIUM RESPONSE WAS LINEAR IN THIS INCREMENT

 MAXIMUM NON-PRESCRIBED INCREMENT IN TEMPERATURE IS  -0.145    

 ITERATION SUMMARY FOR THE INCREMENT:   1 TOTAL ITERATIONS, OF WHICH
   0 ARE SEVERE DISCONTINUITY ITERATIONS AND  1 ARE EQUILIBRIUM ITERATIONS.

 TIME INCREMENT COMPLETED   1.00    ,  FRACTION OF STEP COMPLETED  0.993    
 STEP TIME COMPLETED       1.191E+03,  TOTAL TIME COMPLETED        1.191E+03


  INCREMENT  1200 STARTS. ATTEMPT NUMBER  1, TIME INCREMENT   1.00    

  NUMBER OF EQUATIONS =      864     NUMBER OF FLOATING PT. OPERATIONS =  2.67E+05

     CHECK POINT   START OF SOLVER    

     CHECK POINT  END OF SOLVER       

       ELAPSED USER TIME (SEC)      =   0.0000    
       ELAPSED SYSTEM TIME (SEC)    =   0.0000    
       ELAPSED TOTAL CPU TIME (SEC) =   0.0000    
       ELAPSED WALLCLOCK TIME (SEC) =          0

               CONVERGENCE CHECKS FOR EQUILIBRIUM ITERATION     1


 AVERAGE HEAT FLUX                   5.12       TIME AVG. HEAT FLUX    51.4    
 LARGEST RESIDUAL HEAT FLUX         2.771E-07   AT NODE        320   DOF 11
   INSTANCE: SZYNA2D-1                                                                       
 LARGEST INCREMENT OF TEMP.        -0.145       AT NODE        557   DOF 11
   INSTANCE: SZYNA2D-1                                                                       
 LARGEST CORRECTION TO TEMP.        1.881E-04   AT NODE        127   DOF 11
   INSTANCE: SZYNA2D-1                                                                       
          THE HEAT FLUX EQUILIBRIUM RESPONSE WAS LINEAR IN THIS INCREMENT

 MAXIMUM NON-PRESCRIBED INCREMENT IN TEMPERATURE IS  -0.145    

 ITERATION SUMMARY FOR THE INCREMENT:   1 TOTAL ITERATIONS, OF WHICH
   0 ARE SEVERE DISCONTINUITY ITERATIONS AND  1 ARE EQUILIBRIUM ITERATIONS.

 TIME INCREMENT COMPLETED   1.00    ,  FRACTION OF STEP COMPLETED  0.994    
 STEP TIME COMPLETED       1.192E+03,  TOTAL TIME COMPLETED        1.192E+03


  INCREMENT  1201 STARTS. ATTEMPT NUMBER  1, TIME INCREMENT   1.00    

  NUMBER OF EQUATIONS =      864     NUMBER OF FLOATING PT. OPERATIONS =  2.67E+05

     CHECK POINT   START OF SOLVER    

     CHECK POINT  END OF SOLVER       

       ELAPSED USER TIME (SEC)      =   0.0000    
       ELAPSED SYSTEM TIME (SEC)    =   0.0000    
       ELAPSED TOTAL CPU TIME (SEC) =   0.0000    
       ELAPSED WALLCLOCK TIME (SEC) =          0

               CONVERGENCE CHECKS FOR EQUILIBRIUM ITERATION     1


 AVERAGE HEAT FLUX                   5.11       TIME AVG. HEAT FLUX    51.4    
 LARGEST RESIDUAL HEAT FLUX         2.861E-07   AT NODE        320   DOF 11
   INSTANCE: SZYNA2D-1                                                                       
 LARGEST INCREMENT OF TEMP.        -0.145       AT NODE        557   DOF 11
   INSTANCE: SZYNA2D-1                                                                       
 LARGEST CORRECTION TO TEMP.        1.877E-04   AT NODE        127   DOF 11
   INSTANCE: SZYNA2D-1                                                                       
          THE HEAT FLUX EQUILIBRIUM RESPONSE WAS LINEAR IN THIS INCREMENT

 MAXIMUM NON-PRESCRIBED INCREMENT IN TEMPERATURE IS  -0.145    

 ITERATION SUMMARY FOR THE INCREMENT:   1 TOTAL ITERATIONS, OF WHICH
   0 ARE SEVERE DISCONTINUITY ITERATIONS AND  1 ARE EQUILIBRIUM ITERATIONS.

 TIME INCREMENT COMPLETED   1.00    ,  FRACTION OF STEP COMPLETED  0.994    
 STEP TIME COMPLETED       1.193E+03,  TOTAL TIME COMPLETED        1.193E+03


  INCREMENT  1202 STARTS. ATTEMPT NUMBER  1, TIME INCREMENT   1.00    

  NUMBER OF EQUATIONS =      864     NUMBER OF FLOATING PT. OPERATIONS =  2.67E+05

     CHECK POINT   START OF SOLVER    

     CHECK POINT  END OF SOLVER       

       ELAPSED USER TIME (SEC)      =   0.0000    
       ELAPSED SYSTEM TIME (SEC)    =   0.0000    
       ELAPSED TOTAL CPU TIME (SEC) =   0.0000    
       ELAPSED WALLCLOCK TIME (SEC) =          0

               CONVERGENCE CHECKS FOR EQUILIBRIUM ITERATION     1


 AVERAGE HEAT FLUX                   5.09       TIME AVG. HEAT FLUX    51.4    
 LARGEST RESIDUAL HEAT FLUX         2.951E-07   AT NODE        320   DOF 11
   INSTANCE: SZYNA2D-1                                                                       
 LARGEST INCREMENT OF TEMP.        -0.144       AT NODE        557   DOF 11
   INSTANCE: SZYNA2D-1                                                                       
 LARGEST CORRECTION TO TEMP.        1.873E-04   AT NODE        127   DOF 11
   INSTANCE: SZYNA2D-1                                                                       
          THE HEAT FLUX EQUILIBRIUM RESPONSE WAS LINEAR IN THIS INCREMENT

 MAXIMUM NON-PRESCRIBED INCREMENT IN TEMPERATURE IS  -0.144    

 ITERATION SUMMARY FOR THE INCREMENT:   1 TOTAL ITERATIONS, OF WHICH
   0 ARE SEVERE DISCONTINUITY ITERATIONS AND  1 ARE EQUILIBRIUM ITERATIONS.

 TIME INCREMENT COMPLETED   1.00    ,  FRACTION OF STEP COMPLETED  0.995    
 STEP TIME COMPLETED       1.194E+03,  TOTAL TIME COMPLETED        1.194E+03


  INCREMENT  1203 STARTS. ATTEMPT NUMBER  1, TIME INCREMENT   1.00    

  NUMBER OF EQUATIONS =      864     NUMBER OF FLOATING PT. OPERATIONS =  2.67E+05

     CHECK POINT   START OF SOLVER    

     CHECK POINT  END OF SOLVER       

       ELAPSED USER TIME (SEC)      =   0.0000    
       ELAPSED SYSTEM TIME (SEC)    =   0.0000    
       ELAPSED TOTAL CPU TIME (SEC) =   0.0000    
       ELAPSED WALLCLOCK TIME (SEC) =          0

               CONVERGENCE CHECKS FOR EQUILIBRIUM ITERATION     1


 AVERAGE HEAT FLUX                   5.08       TIME AVG. HEAT FLUX    51.3    
 LARGEST RESIDUAL HEAT FLUX         3.040E-07   AT NODE        320   DOF 11
   INSTANCE: SZYNA2D-1                                                                       
 LARGEST INCREMENT OF TEMP.        -0.144       AT NODE        557   DOF 11
   INSTANCE: SZYNA2D-1                                                                       
 LARGEST CORRECTION TO TEMP.        1.869E-04   AT NODE        127   DOF 11
   INSTANCE: SZYNA2D-1                                                                       
          THE HEAT FLUX EQUILIBRIUM RESPONSE WAS LINEAR IN THIS INCREMENT

 MAXIMUM NON-PRESCRIBED INCREMENT IN TEMPERATURE IS  -0.144    

 ITERATION SUMMARY FOR THE INCREMENT:   1 TOTAL ITERATIONS, OF WHICH
   0 ARE SEVERE DISCONTINUITY ITERATIONS AND  1 ARE EQUILIBRIUM ITERATIONS.

 TIME INCREMENT COMPLETED   1.00    ,  FRACTION OF STEP COMPLETED  0.996    
 STEP TIME COMPLETED       1.195E+03,  TOTAL TIME COMPLETED        1.195E+03


  INCREMENT  1204 STARTS. ATTEMPT NUMBER  1, TIME INCREMENT   1.00    

  NUMBER OF EQUATIONS =      864     NUMBER OF FLOATING PT. OPERATIONS =  2.67E+05

     CHECK POINT   START OF SOLVER    

     CHECK POINT  END OF SOLVER       

       ELAPSED USER TIME (SEC)      =   0.0000    
       ELAPSED SYSTEM TIME (SEC)    =   0.0000    
       ELAPSED TOTAL CPU TIME (SEC) =   0.0000    
       ELAPSED WALLCLOCK TIME (SEC) =          0

               CONVERGENCE CHECKS FOR EQUILIBRIUM ITERATION     1


 AVERAGE HEAT FLUX                   5.07       TIME AVG. HEAT FLUX    51.3    
 LARGEST RESIDUAL HEAT FLUX         3.129E-07   AT NODE        320   DOF 11
   INSTANCE: SZYNA2D-1                                                                       
 LARGEST INCREMENT OF TEMP.        -0.144       AT NODE        557   DOF 11
   INSTANCE: SZYNA2D-1                                                                       
 LARGEST CORRECTION TO TEMP.        1.865E-04   AT NODE        127   DOF 11
   INSTANCE: SZYNA2D-1                                                                       
          THE HEAT FLUX EQUILIBRIUM RESPONSE WAS LINEAR IN THIS INCREMENT

 MAXIMUM NON-PRESCRIBED INCREMENT IN TEMPERATURE IS  -0.144    

 ITERATION SUMMARY FOR THE INCREMENT:   1 TOTAL ITERATIONS, OF WHICH
   0 ARE SEVERE DISCONTINUITY ITERATIONS AND  1 ARE EQUILIBRIUM ITERATIONS.

 TIME INCREMENT COMPLETED   1.00    ,  FRACTION OF STEP COMPLETED  0.997    
 STEP TIME COMPLETED       1.196E+03,  TOTAL TIME COMPLETED        1.196E+03


  INCREMENT  1205 STARTS. ATTEMPT NUMBER  1, TIME INCREMENT   1.00    

  NUMBER OF EQUATIONS =      864     NUMBER OF FLOATING PT. OPERATIONS =  2.67E+05

     CHECK POINT   START OF SOLVER    

     CHECK POINT  END OF SOLVER       

       ELAPSED USER TIME (SEC)      =   0.0000    
       ELAPSED SYSTEM TIME (SEC)    =   0.0000    
       ELAPSED TOTAL CPU TIME (SEC) =   0.0000    
       ELAPSED WALLCLOCK TIME (SEC) =          0

               CONVERGENCE CHECKS FOR EQUILIBRIUM ITERATION     1


 AVERAGE HEAT FLUX                   5.06       TIME AVG. HEAT FLUX    51.2    
 LARGEST RESIDUAL HEAT FLUX         3.217E-07   AT NODE        320   DOF 11
   INSTANCE: SZYNA2D-1                                                                       
 LARGEST INCREMENT OF TEMP.        -0.144       AT NODE        557   DOF 11
   INSTANCE: SZYNA2D-1                                                                       
 LARGEST CORRECTION TO TEMP.        1.861E-04   AT NODE        127   DOF 11
   INSTANCE: SZYNA2D-1                                                                       
          THE HEAT FLUX EQUILIBRIUM RESPONSE WAS LINEAR IN THIS INCREMENT

 MAXIMUM NON-PRESCRIBED INCREMENT IN TEMPERATURE IS  -0.144    

 ITERATION SUMMARY FOR THE INCREMENT:   1 TOTAL ITERATIONS, OF WHICH
   0 ARE SEVERE DISCONTINUITY ITERATIONS AND  1 ARE EQUILIBRIUM ITERATIONS.

 TIME INCREMENT COMPLETED   1.00    ,  FRACTION OF STEP COMPLETED  0.998    
 STEP TIME COMPLETED       1.197E+03,  TOTAL TIME COMPLETED        1.197E+03


  INCREMENT  1206 STARTS. ATTEMPT NUMBER  1, TIME INCREMENT   1.00    

  NUMBER OF EQUATIONS =      864     NUMBER OF FLOATING PT. OPERATIONS =  2.67E+05

     CHECK POINT   START OF SOLVER    

     CHECK POINT  END OF SOLVER       

       ELAPSED USER TIME (SEC)      =   0.0000    
       ELAPSED SYSTEM TIME (SEC)    =  0.10000    
       ELAPSED TOTAL CPU TIME (SEC) =  0.10000    
       ELAPSED WALLCLOCK TIME (SEC) =          0

               CONVERGENCE CHECKS FOR EQUILIBRIUM ITERATION     1


 AVERAGE HEAT FLUX                   5.05       TIME AVG. HEAT FLUX    51.2    
 LARGEST RESIDUAL HEAT FLUX         3.304E-07   AT NODE        320   DOF 11
   INSTANCE: SZYNA2D-1                                                                       
 LARGEST INCREMENT OF TEMP.        -0.144       AT NODE        557   DOF 11
   INSTANCE: SZYNA2D-1                                                                       
 LARGEST CORRECTION TO TEMP.        1.857E-04   AT NODE        127   DOF 11
   INSTANCE: SZYNA2D-1                                                                       
          THE HEAT FLUX EQUILIBRIUM RESPONSE WAS LINEAR IN THIS INCREMENT

 MAXIMUM NON-PRESCRIBED INCREMENT IN TEMPERATURE IS  -0.144    

 ITERATION SUMMARY FOR THE INCREMENT:   1 TOTAL ITERATIONS, OF WHICH
   0 ARE SEVERE DISCONTINUITY ITERATIONS AND  1 ARE EQUILIBRIUM ITERATIONS.

 TIME INCREMENT COMPLETED   1.00    ,  FRACTION OF STEP COMPLETED  0.999    
 STEP TIME COMPLETED       1.198E+03,  TOTAL TIME COMPLETED        1.198E+03


  INCREMENT  1207 STARTS. ATTEMPT NUMBER  1, TIME INCREMENT   1.00    

  NUMBER OF EQUATIONS =      864     NUMBER OF FLOATING PT. OPERATIONS =  2.67E+05

     CHECK POINT   START OF SOLVER    

     CHECK POINT  END OF SOLVER       

       ELAPSED USER TIME (SEC)      =   0.0000    
       ELAPSED SYSTEM TIME (SEC)    =   0.0000    
       ELAPSED TOTAL CPU TIME (SEC) =   0.0000    
       ELAPSED WALLCLOCK TIME (SEC) =          0

               CONVERGENCE CHECKS FOR EQUILIBRIUM ITERATION     1


 AVERAGE HEAT FLUX                   5.04       TIME AVG. HEAT FLUX    51.2    
 LARGEST RESIDUAL HEAT FLUX         3.391E-07   AT NODE        320   DOF 11
   INSTANCE: SZYNA2D-1                                                                       
 LARGEST INCREMENT OF TEMP.        -0.143       AT NODE        557   DOF 11
   INSTANCE: SZYNA2D-1                                                                       
 LARGEST CORRECTION TO TEMP.        1.853E-04   AT NODE        127   DOF 11
   INSTANCE: SZYNA2D-1                                                                       
          THE HEAT FLUX EQUILIBRIUM RESPONSE WAS LINEAR IN THIS INCREMENT

 MAXIMUM NON-PRESCRIBED INCREMENT IN TEMPERATURE IS  -0.143    

 ITERATION SUMMARY FOR THE INCREMENT:   1 TOTAL ITERATIONS, OF WHICH
   0 ARE SEVERE DISCONTINUITY ITERATIONS AND  1 ARE EQUILIBRIUM ITERATIONS.

 TIME INCREMENT COMPLETED   1.00    ,  FRACTION OF STEP COMPLETED  0.999    
 STEP TIME COMPLETED       1.199E+03,  TOTAL TIME COMPLETED        1.199E+03


  INCREMENT  1208 STARTS. ATTEMPT NUMBER  1, TIME INCREMENT  0.710    

  NUMBER OF EQUATIONS =      864     NUMBER OF FLOATING PT. OPERATIONS =  2.67E+05

     CHECK POINT   START OF SOLVER    

     CHECK POINT  END OF SOLVER       

       ELAPSED USER TIME (SEC)      =   0.0000    
       ELAPSED SYSTEM TIME (SEC)    =   0.0000    
       ELAPSED TOTAL CPU TIME (SEC) =   0.0000    
       ELAPSED WALLCLOCK TIME (SEC) =          0

               CONVERGENCE CHECKS FOR EQUILIBRIUM ITERATION     1


 AVERAGE HEAT FLUX                   5.03       TIME AVG. HEAT FLUX    51.1    
 LARGEST RESIDUAL HEAT FLUX         1.089E-11   AT NODE        150   DOF 11
   INSTANCE: SZYNA2D-1                                                                       
 LARGEST INCREMENT OF TEMP.        -0.102       AT NODE        557   DOF 11
   INSTANCE: SZYNA2D-1                                                                       
 LARGEST CORRECTION TO TEMP.        9.327E-05   AT NODE        127   DOF 11
   INSTANCE: SZYNA2D-1                                                                       
          THE HEAT FLUX EQUILIBRIUM RESPONSE WAS LINEAR IN THIS INCREMENT

 MAXIMUM NON-PRESCRIBED INCREMENT IN TEMPERATURE IS  -0.102    

 ITERATION SUMMARY FOR THE INCREMENT:   1 TOTAL ITERATIONS, OF WHICH
   0 ARE SEVERE DISCONTINUITY ITERATIONS AND  1 ARE EQUILIBRIUM ITERATIONS.

 TIME INCREMENT COMPLETED  0.710    ,  FRACTION OF STEP COMPLETED   1.00    
 STEP TIME COMPLETED       1.200E+03,  TOTAL TIME COMPLETED        1.200E+03


          THE ANALYSIS HAS BEEN COMPLETED



     ANALYSIS SUMMARY:
     TOTAL OF       1208  INCREMENTS
                       0  CUTBACKS IN AUTOMATIC INCREMENTATION
                    1208  ITERATIONS INCLUDING CONTACT ITERATIONS IF PRESENT
                    1208  PASSES THROUGH THE EQUATION SOLVER OF WHICH 
                     364  INVOLVE MATRIX DECOMPOSITION, INCLUDING
                       0  DECOMPOSITION(S) OF THE MASS MATRIX
                       1  REORDERING OF EQUATIONS TO MINIMIZE WAVEFRONT
                       0  ADDITIONAL RESIDUAL EVALUATIONS FOR LINE SEARCHES
                       0  ADDITIONAL OPERATOR EVALUATIONS FOR LINE SEARCHES
                       0  WARNING MESSAGES DURING USER INPUT PROCESSING
                       0  WARNING MESSAGES DURING ANALYSIS
                       0  ANALYSIS WARNINGS ARE NUMERICAL PROBLEM MESSAGES
                       0  ANALYSIS WARNINGS ARE NEGATIVE EIGENVALUE MESSAGES
                       0  ERROR MESSAGES



     JOB TIME SUMMARY
       USER TIME (SEC)      =   41.700    
       SYSTEM TIME (SEC)    =   9.6000    
       TOTAL CPU TIME (SEC) =   51.300    
       WALLCLOCK TIME (SEC) =         94
