1

   Abaqus 6.14-2                                  Date 30-kwi-2017   Time 23:53:38
   

                                                                                 
 Cooling                                                                         
 STEP    1     INCREMENT     1     STEP TIME    0.00    


                        S T E P       1     T R A N S I E N T   H E A T   T R A N S F E R


          Cooling                                                                         

     AUTOMATIC TIME CONTROL WITH -
          A SUGGESTED INITIAL TIME INCREMENT OF                1.000E-02
          AND A TOTAL TIME PERIOD OF                           1.200E+03
          THE MINIMUM TIME INCREMENT ALLOWED IS                3.000E-03
          THE MAXIMUM TIME INCREMENT ALLOWED IS                 1.00    

     THE SIZE OF THE TIME INCREMENT IS CONTROLLED BY -
          THE TEMPERATURE CHANGE PER INCREMENT NOT EXCEEDING           1.000E+06

 CONVERGENCE TOLERANCE PARAMETERS FOR HEAT FLUX
     CRITERION FOR RESIDUAL HEAT FLUX FOR A NONLINEAR PROBLEM          5.000E-03
     CRITERION FOR TEMP.    CORRECTION IN A NONLINEAR PROBLEM          1.000E-02
     INITIAL VALUE OF TIME AVERAGE HEAT FLUX                           1.000E-02
     AVERAGE HEAT FLUX IS TIME AVERAGE HEAT FLUX
     ALTERNATE CRIT. FOR RESIDUAL HEAT FLUX FOR A NONLINEAR PROBLEM    2.000E-02
     CRITERION FOR ZERO HEAT FLUX RELATIVE TO TIME AVRG. HEAT FLUX     1.000E-05
     CRITERION FOR RESIDUAL HEAT FLUX WHEN THERE IS ZERO FLUX          1.000E-05
     CRITERION FOR TEMP.    CORRECTION WHEN THERE IS ZERO FLUX         1.000E-03
     CRITERION FOR RESIDUAL HEAT FLUX FOR A LINEAR INCREMENT           1.000E-08
     FIELD CONVERSION RATIO                                             1.00    
     CRITERION FOR ZERO HEAT FLUX REL. TO TIME AVRG. MAX. HEAT FLUX    1.000E-05

     VOLUMETRIC STRAIN COMPATIBILITY TOLERANCE FOR HYBRID SOLIDS       1.000E-05
     AXIAL STRAIN COMPATIBILITY TOLERANCE FOR HYBRID BEAMS             1.000E-05
     TRANS. SHEAR STRAIN COMPATIBILITY TOLERANCE FOR HYBRID BEAMS      1.000E-05
     SOFT CONTACT CONSTRAINT COMPATIBILITY TOLERANCE FOR P>P0          5.000E-03
     SOFT CONTACT CONSTRAINT COMPATIBILITY TOLERANCE FOR P=0.0         0.100    
     CONTACT FORCE ERROR TOLERANCE FOR CONVERT SDI=YES                 1.00    
     DISPLACEMENT COMPATIBILITY TOLERANCE FOR DCOUP ELEMENTS           1.000E-05
     ROTATION COMPATIBILITY TOLERANCE FOR DCOUP ELEMENTS               1.000E-05

 TIME INCREMENTATION CONTROL PARAMETERS:
     FIRST EQUILIBRIUM ITERATION FOR CONSECUTIVE DIVERGENCE CHECK              4
     EQUILIBRIUM ITERATION AT WHICH LOG. CONVERGENCE RATE CHECK BEGINS         8
     EQUILIBRIUM ITERATION AFTER WHICH ALTERNATE RESIDUAL IS USED              9
     MAXIMUM EQUILIBRIUM ITERATIONS ALLOWED                                   16
     EQUILIBRIUM ITERATION COUNT FOR CUT-BACK IN NEXT INCREMENT               10
     MAXIMUM EQUILIB. ITERS IN TWO INCREMENTS FOR TIME INCREMENT INCREASE      4
     MAXIMUM ITERATIONS FOR SEVERE DISCONTINUITIES                            12
     MAXIMUM CUT-BACKS ALLOWED IN AN INCREMENT                                 5
     MAXIMUM DISCON. ITERS IN TWO INCREMENTS FOR TIME INCREMENT INCREASE       6
     MAXIMUM CONTACT AUGMENTATIONS FOR *SURFACE BEHAVIOR,AUGMENTED LAGRANGE   50
     CONSECUTIVE INCS MEETING TIME INTEG. TOL. FOR TIME INC. INCREASE          3
     CUT-BACK FACTOR AFTER DIVERGENCE                                 0.2500    
     CUT-BACK FACTOR FOR TOO SLOW CONVERGENCE                         0.5000    
     CUT-BACK FACTOR AFTER TOO MANY EQUILIBRIUM ITERATIONS            0.7500    
     CUT-BACK FACTOR AFTER TOO MANY SEVERE DISCONTINUITY ITERATIONS   0.2500    
     CUT-BACK FACTOR AFTER PROBLEMS IN ELEMENT ASSEMBLY               0.2500    
     INCREASE FACTOR AFTER TWO INCREMENTS THAT CONVERGE QUICKLY        1.500    
     MAX. TIME INCREMENT INCREASE FACTOR ALLOWED                       1.500    
     MAX. TIME INCREMENT INCREASE FACTOR ALLOWED (DYNAMICS)            1.250    
     MAX. TIME INCREMENT INCREASE FACTOR ALLOWED (DIFFUSION)           2.000    
     MINIMUM TIME INCREMENT RATIO FOR EXTRAPOLATION TO OCCUR          0.1000    
     CUT-BACK FACTOR WHEN TIME INTEGRATION ACCURACY TOL. EXCEEDED     0.8500    
     MAX. RATIO OF TIME INTEG. MEASURE TO TOL. FOR TIME INC. INCREASE 0.7500    
     INCREASE FACTOR FOR TIME INCREMENT WHEN POSSIBLE                 0.8000    
     MIN. TIME INC. INCREASE FACTOR IN LINEAR TRANSIENT PROBLEMS      0.9500    
     MAX. RATIO OF TIME INCREMENT TO STABILITY LIMIT                   1.000    
     FRACTION OF STABILITY LIMIT FOR NEW TIME INCREMENT               0.9500    
     TIME INCREMENT INCREASE FACTOR BEFORE A TIME POINT                1.000    
     GLOBAL STABILIZATION CONTROL IS NOT USED

          PRINT OF INCREMENT NUMBER, TIME, ETC., EVERY    1  INCREMENTS

     THE MAXIMUM NUMBER OF INCREMENTS IN THIS STEP IS                   10000

     LINEAR EXTRAPOLATION WILL BE USED

     CHARACTERISTIC ELEMENT LENGTH     3.226E-03

     DETAILS REGARDING ACTUAL SOLUTION WAVEFRONT REQUESTED

     DETAILED OUTPUT OF DIAGNOSTICS TO DATABASE REQUESTED

     PRINT OF INCREMENT NUMBER, TIME, ETC., TO THE MESSAGE FILE EVERY     1  INCREMENTS

     COLLECTING MODEL CONSTRAINT INFORMATION FOR OVERCONSTRAINT CHECKS

     COLLECTING STEP CONSTRAINT INFORMATION FOR OVERCONSTRAINT CHECKS


  INCREMENT     1 STARTS. ATTEMPT NUMBER  1, TIME INCREMENT  1.000E-02

  NUMBER OF EQUATIONS =      864     NUMBER OF FLOATING PT. OPERATIONS =  2.67E+05

     CHECK POINT   START OF SOLVER    

     CHECK POINT  END OF SOLVER       

       ELAPSED USER TIME (SEC)      =   0.0000    
       ELAPSED SYSTEM TIME (SEC)    =   0.0000    
       ELAPSED TOTAL CPU TIME (SEC) =   0.0000    
       ELAPSED WALLCLOCK TIME (SEC) =          0

               CONVERGENCE CHECKS FOR EQUILIBRIUM ITERATION     1


 AVERAGE HEAT FLUX                   52.9       TIME AVG. HEAT FLUX    52.9    
 LARGEST RESIDUAL HEAT FLUX        -1.738E-03   AT NODE         58   DOF 11
   INSTANCE: SZYNA2D-1                                                                       
 LARGEST INCREMENT OF TEMP.         -1.84       AT NODE         81   DOF 11
   INSTANCE: SZYNA2D-1                                                                       
 LARGEST CORRECTION TO TEMP.        -1.84       AT NODE         81   DOF 11
   INSTANCE: SZYNA2D-1                                                                       
 ESTIMATE OF TEMP.    CORRECTION   -1.256E-06
 HEAT FLUX EQUILIB. ACCEPTED BASED ON SMALL RESIDUAL AND ESTIMATED CORRECTION

 MAXIMUM NON-PRESCRIBED INCREMENT IN TEMPERATURE IS   -1.84    

 ITERATION SUMMARY FOR THE INCREMENT:   1 TOTAL ITERATIONS, OF WHICH
   0 ARE SEVERE DISCONTINUITY ITERATIONS AND  1 ARE EQUILIBRIUM ITERATIONS.

 TIME INCREMENT COMPLETED  1.000E-02,  FRACTION OF STEP COMPLETED  8.333E-06
 STEP TIME COMPLETED       1.000E-02,  TOTAL TIME COMPLETED        1.000E-02


  INCREMENT     2 STARTS. ATTEMPT NUMBER  1, TIME INCREMENT  1.000E-02

  NUMBER OF EQUATIONS =      864     NUMBER OF FLOATING PT. OPERATIONS =  2.67E+05

     CHECK POINT   START OF SOLVER    

     CHECK POINT  END OF SOLVER       

       ELAPSED USER TIME (SEC)      =  0.10000    
       ELAPSED SYSTEM TIME (SEC)    =   0.0000    
       ELAPSED TOTAL CPU TIME (SEC) =  0.10000    
       ELAPSED WALLCLOCK TIME (SEC) =          0

               CONVERGENCE CHECKS FOR EQUILIBRIUM ITERATION     1


 AVERAGE HEAT FLUX                   90.0       TIME AVG. HEAT FLUX    71.4    
 LARGEST RESIDUAL HEAT FLUX        -5.603E-06   AT NODE         81   DOF 11
   INSTANCE: SZYNA2D-1                                                                       
 LARGEST INCREMENT OF TEMP.         -1.71       AT NODE         81   DOF 11
   INSTANCE: SZYNA2D-1                                                                       
 LARGEST CORRECTION TO TEMP.        0.125       AT NODE         81   DOF 11
   INSTANCE: SZYNA2D-1                                                                       
 ESTIMATE OF TEMP.    CORRECTION   -5.840E-09
 HEAT FLUX EQUILIB. ACCEPTED BASED ON SMALL RESIDUAL AND ESTIMATED CORRECTION

 MAXIMUM NON-PRESCRIBED INCREMENT IN TEMPERATURE IS   -1.71    

 ITERATION SUMMARY FOR THE INCREMENT:   1 TOTAL ITERATIONS, OF WHICH
   0 ARE SEVERE DISCONTINUITY ITERATIONS AND  1 ARE EQUILIBRIUM ITERATIONS.

 TIME INCREMENT COMPLETED  1.000E-02,  FRACTION OF STEP COMPLETED  1.667E-05
 STEP TIME COMPLETED       2.000E-02,  TOTAL TIME COMPLETED        2.000E-02


  INCREMENT     3 STARTS. ATTEMPT NUMBER  1, TIME INCREMENT  1.000E-02

  NUMBER OF EQUATIONS =      864     NUMBER OF FLOATING PT. OPERATIONS =  2.67E+05

     CHECK POINT   START OF SOLVER    

     CHECK POINT  END OF SOLVER       

       ELAPSED USER TIME (SEC)      =   0.0000    
       ELAPSED SYSTEM TIME (SEC)    =   0.0000    
       ELAPSED TOTAL CPU TIME (SEC) =   0.0000    
       ELAPSED WALLCLOCK TIME (SEC) =          0

               CONVERGENCE CHECKS FOR EQUILIBRIUM ITERATION     1


 AVERAGE HEAT FLUX                   89.1       TIME AVG. HEAT FLUX    77.3    
 LARGEST RESIDUAL HEAT FLUX        -4.545E-06   AT NODE         81   DOF 11
   INSTANCE: SZYNA2D-1                                                                       
 LARGEST INCREMENT OF TEMP.         -1.60       AT NODE         81   DOF 11
   INSTANCE: SZYNA2D-1                                                                       
 LARGEST CORRECTION TO TEMP.        0.112       AT NODE         81   DOF 11
   INSTANCE: SZYNA2D-1                                                                       
 ESTIMATE OF TEMP.    CORRECTION   -4.585E-09
 HEAT FLUX EQUILIB. ACCEPTED BASED ON SMALL RESIDUAL AND ESTIMATED CORRECTION

 MAXIMUM NON-PRESCRIBED INCREMENT IN TEMPERATURE IS   -1.60    
          TIME INCREMENT MAY NOW INCREASE TO    2.000E-02

 ITERATION SUMMARY FOR THE INCREMENT:   1 TOTAL ITERATIONS, OF WHICH
   0 ARE SEVERE DISCONTINUITY ITERATIONS AND  1 ARE EQUILIBRIUM ITERATIONS.

 TIME INCREMENT COMPLETED  1.000E-02,  FRACTION OF STEP COMPLETED  2.500E-05
 STEP TIME COMPLETED       3.000E-02,  TOTAL TIME COMPLETED        3.000E-02


  INCREMENT     4 STARTS. ATTEMPT NUMBER  1, TIME INCREMENT  2.000E-02

  NUMBER OF EQUATIONS =      864     NUMBER OF FLOATING PT. OPERATIONS =  2.67E+05

     CHECK POINT   START OF SOLVER    

     CHECK POINT  END OF SOLVER       

       ELAPSED USER TIME (SEC)      =   0.0000    
       ELAPSED SYSTEM TIME (SEC)    =   0.0000    
       ELAPSED TOTAL CPU TIME (SEC) =   0.0000    
       ELAPSED WALLCLOCK TIME (SEC) =          0

               CONVERGENCE CHECKS FOR EQUILIBRIUM ITERATION     1


 AVERAGE HEAT FLUX                   87.3       TIME AVG. HEAT FLUX    79.8    
 LARGEST RESIDUAL HEAT FLUX        -4.919E-05   AT NODE         81   DOF 11
   INSTANCE: SZYNA2D-1                                                                       
 LARGEST INCREMENT OF TEMP.         -2.83       AT NODE         81   DOF 11
   INSTANCE: SZYNA2D-1                                                                       
 LARGEST CORRECTION TO TEMP.        0.371       AT NODE         81   DOF 11
   INSTANCE: SZYNA2D-1                                                                       
 ESTIMATE OF TEMP.    CORRECTION   -8.778E-08
 HEAT FLUX EQUILIB. ACCEPTED BASED ON SMALL RESIDUAL AND ESTIMATED CORRECTION

 MAXIMUM NON-PRESCRIBED INCREMENT IN TEMPERATURE IS   -2.83    
          TIME INCREMENT MAY NOW INCREASE TO    4.000E-02

 ITERATION SUMMARY FOR THE INCREMENT:   1 TOTAL ITERATIONS, OF WHICH
   0 ARE SEVERE DISCONTINUITY ITERATIONS AND  1 ARE EQUILIBRIUM ITERATIONS.

 TIME INCREMENT COMPLETED  2.000E-02,  FRACTION OF STEP COMPLETED  4.167E-05
 STEP TIME COMPLETED       5.000E-02,  TOTAL TIME COMPLETED        5.000E-02


  INCREMENT     5 STARTS. ATTEMPT NUMBER  1, TIME INCREMENT  4.000E-02

  NUMBER OF EQUATIONS =      864     NUMBER OF FLOATING PT. OPERATIONS =  2.67E+05

     CHECK POINT   START OF SOLVER    

     CHECK POINT  END OF SOLVER       

       ELAPSED USER TIME (SEC)      =   0.0000    
       ELAPSED SYSTEM TIME (SEC)    =   0.0000    
       ELAPSED TOTAL CPU TIME (SEC) =   0.0000    
       ELAPSED WALLCLOCK TIME (SEC) =          0

               CONVERGENCE CHECKS FOR EQUILIBRIUM ITERATION     1


 AVERAGE HEAT FLUX                   83.1       TIME AVG. HEAT FLUX    80.5    
 LARGEST RESIDUAL HEAT FLUX        -3.943E-04   AT NODE         81   DOF 11
   INSTANCE: SZYNA2D-1                                                                       
 LARGEST INCREMENT OF TEMP.         -4.60       AT NODE         81   DOF 11
   INSTANCE: SZYNA2D-1                                                                       
 LARGEST CORRECTION TO TEMP.         1.06       AT NODE         81   DOF 11
   INSTANCE: SZYNA2D-1                                                                       
 ESTIMATE OF TEMP.    CORRECTION   -1.143E-06
 HEAT FLUX EQUILIB. ACCEPTED BASED ON SMALL RESIDUAL AND ESTIMATED CORRECTION

 MAXIMUM NON-PRESCRIBED INCREMENT IN TEMPERATURE IS   -4.60    
          TIME INCREMENT MAY NOW INCREASE TO    8.000E-02

 ITERATION SUMMARY FOR THE INCREMENT:   1 TOTAL ITERATIONS, OF WHICH
   0 ARE SEVERE DISCONTINUITY ITERATIONS AND  1 ARE EQUILIBRIUM ITERATIONS.

 TIME INCREMENT COMPLETED  4.000E-02,  FRACTION OF STEP COMPLETED  7.500E-05
 STEP TIME COMPLETED       9.000E-02,  TOTAL TIME COMPLETED        9.000E-02


  INCREMENT     6 STARTS. ATTEMPT NUMBER  1, TIME INCREMENT  8.000E-02

  NUMBER OF EQUATIONS =      864     NUMBER OF FLOATING PT. OPERATIONS =  2.67E+05

     CHECK POINT   START OF SOLVER    

     CHECK POINT  END OF SOLVER       

       ELAPSED USER TIME (SEC)      =   0.0000    
       ELAPSED SYSTEM TIME (SEC)    =   0.0000    
       ELAPSED TOTAL CPU TIME (SEC) =   0.0000    
       ELAPSED WALLCLOCK TIME (SEC) =          0

               CONVERGENCE CHECKS FOR EQUILIBRIUM ITERATION     1


 AVERAGE HEAT FLUX                   82.8       TIME AVG. HEAT FLUX    80.9    
 LARGEST RESIDUAL HEAT FLUX        -2.544E-03   AT NODE         58   DOF 11
   INSTANCE: SZYNA2D-1                                                                       
 LARGEST INCREMENT OF TEMP.         -7.14       AT NODE         58   DOF 11
   INSTANCE: SZYNA2D-1                                                                       
 LARGEST CORRECTION TO TEMP.         2.42       AT NODE         81   DOF 11
   INSTANCE: SZYNA2D-1                                                                       
 ESTIMATE OF TEMP.    CORRECTION   -1.080E-05
 HEAT FLUX EQUILIB. ACCEPTED BASED ON SMALL RESIDUAL AND ESTIMATED CORRECTION

 MAXIMUM NON-PRESCRIBED INCREMENT IN TEMPERATURE IS   -7.14    
          TIME INCREMENT MAY NOW INCREASE TO    0.160    

 ITERATION SUMMARY FOR THE INCREMENT:   1 TOTAL ITERATIONS, OF WHICH
   0 ARE SEVERE DISCONTINUITY ITERATIONS AND  1 ARE EQUILIBRIUM ITERATIONS.

 TIME INCREMENT COMPLETED  8.000E-02,  FRACTION OF STEP COMPLETED  1.417E-04
 STEP TIME COMPLETED       0.170    ,  TOTAL TIME COMPLETED        0.170    


  INCREMENT     7 STARTS. ATTEMPT NUMBER  1, TIME INCREMENT  0.160    

  NUMBER OF EQUATIONS =      864     NUMBER OF FLOATING PT. OPERATIONS =  2.67E+05

     CHECK POINT   START OF SOLVER    

     CHECK POINT  END OF SOLVER       

       ELAPSED USER TIME (SEC)      =   0.0000    
       ELAPSED SYSTEM TIME (SEC)    =   0.0000    
       ELAPSED TOTAL CPU TIME (SEC) =   0.0000    
       ELAPSED WALLCLOCK TIME (SEC) =          0

               CONVERGENCE CHECKS FOR EQUILIBRIUM ITERATION     1


 AVERAGE HEAT FLUX                   87.1       TIME AVG. HEAT FLUX    81.7    
 LARGEST RESIDUAL HEAT FLUX        -1.043E-02   AT NODE         58   DOF 11
   INSTANCE: SZYNA2D-1                                                                       
 LARGEST INCREMENT OF TEMP.         -10.3       AT NODE         59   DOF 11
   INSTANCE: SZYNA2D-1                                                                       
 LARGEST CORRECTION TO TEMP.         4.34       AT NODE         81   DOF 11
   INSTANCE: SZYNA2D-1                                                                       
 ESTIMATE OF TEMP.    CORRECTION   -6.016E-05
 HEAT FLUX EQUILIB. ACCEPTED BASED ON SMALL RESIDUAL AND ESTIMATED CORRECTION

 MAXIMUM NON-PRESCRIBED INCREMENT IN TEMPERATURE IS   -10.3    
          TIME INCREMENT MAY NOW INCREASE TO    0.320    

 ITERATION SUMMARY FOR THE INCREMENT:   1 TOTAL ITERATIONS, OF WHICH
   0 ARE SEVERE DISCONTINUITY ITERATIONS AND  1 ARE EQUILIBRIUM ITERATIONS.

 TIME INCREMENT COMPLETED  0.160    ,  FRACTION OF STEP COMPLETED  2.750E-04
 STEP TIME COMPLETED       0.330    ,  TOTAL TIME COMPLETED        0.330    


  INCREMENT     8 STARTS. ATTEMPT NUMBER  1, TIME INCREMENT  0.320    

  NUMBER OF EQUATIONS =      864     NUMBER OF FLOATING PT. OPERATIONS =  2.67E+05

     CHECK POINT   START OF SOLVER    

     CHECK POINT  END OF SOLVER       

       ELAPSED USER TIME (SEC)      =   0.0000    
       ELAPSED SYSTEM TIME (SEC)    =   0.0000    
       ELAPSED TOTAL CPU TIME (SEC) =   0.0000    
       ELAPSED WALLCLOCK TIME (SEC) =          0

               CONVERGENCE CHECKS FOR EQUILIBRIUM ITERATION     1


 AVERAGE HEAT FLUX                   97.9       TIME AVG. HEAT FLUX    83.8    
 LARGEST RESIDUAL HEAT FLUX        -2.574E-02   AT NODE        281   DOF 11
   INSTANCE: SZYNA2D-1                                                                       
 LARGEST INCREMENT OF TEMP.         -15.1       AT NODE         73   DOF 11
   INSTANCE: SZYNA2D-1                                                                       
 LARGEST CORRECTION TO TEMP.         6.70       AT NODE         80   DOF 11
   INSTANCE: SZYNA2D-1                                                                       
 ESTIMATE OF TEMP.    CORRECTION   -2.120E-04
 HEAT FLUX EQUILIB. ACCEPTED BASED ON SMALL RESIDUAL AND ESTIMATED CORRECTION

 MAXIMUM NON-PRESCRIBED INCREMENT IN TEMPERATURE IS   -15.1    
          TIME INCREMENT MAY NOW INCREASE TO    0.640    

 ITERATION SUMMARY FOR THE INCREMENT:   1 TOTAL ITERATIONS, OF WHICH
   0 ARE SEVERE DISCONTINUITY ITERATIONS AND  1 ARE EQUILIBRIUM ITERATIONS.

 TIME INCREMENT COMPLETED  0.320    ,  FRACTION OF STEP COMPLETED  5.417E-04
 STEP TIME COMPLETED       0.650    ,  TOTAL TIME COMPLETED        0.650    


  INCREMENT     9 STARTS. ATTEMPT NUMBER  1, TIME INCREMENT  0.640    

  NUMBER OF EQUATIONS =      864     NUMBER OF FLOATING PT. OPERATIONS =  2.67E+05

     CHECK POINT   START OF SOLVER    

     CHECK POINT  END OF SOLVER       

       ELAPSED USER TIME (SEC)      =   0.0000    
       ELAPSED SYSTEM TIME (SEC)    =   0.0000    
       ELAPSED TOTAL CPU TIME (SEC) =   0.0000    
       ELAPSED WALLCLOCK TIME (SEC) =          0

               CONVERGENCE CHECKS FOR EQUILIBRIUM ITERATION     1


 AVERAGE HEAT FLUX                   115.       TIME AVG. HEAT FLUX    87.3    
 LARGEST RESIDUAL HEAT FLUX        -4.873E-02   AT NODE         57   DOF 11
   INSTANCE: SZYNA2D-1                                                                       
 LARGEST INCREMENT OF TEMP.         -21.6       AT NODE         73   DOF 11
   INSTANCE: SZYNA2D-1                                                                       
 LARGEST CORRECTION TO TEMP.         9.84       AT NODE         52   DOF 11
   INSTANCE: SZYNA2D-1                                                                       
 ESTIMATE OF TEMP.    CORRECTION   -6.259E-04
 HEAT FLUX EQUILIB. ACCEPTED BASED ON SMALL RESIDUAL AND ESTIMATED CORRECTION

 MAXIMUM NON-PRESCRIBED INCREMENT IN TEMPERATURE IS   -21.6    
          TIME INCREMENT MAY NOW INCREASE TO     1.00    

 ITERATION SUMMARY FOR THE INCREMENT:   1 TOTAL ITERATIONS, OF WHICH
   0 ARE SEVERE DISCONTINUITY ITERATIONS AND  1 ARE EQUILIBRIUM ITERATIONS.

 TIME INCREMENT COMPLETED  0.640    ,  FRACTION OF STEP COMPLETED  1.075E-03
 STEP TIME COMPLETED        1.29    ,  TOTAL TIME COMPLETED         1.29    


  INCREMENT    10 STARTS. ATTEMPT NUMBER  1, TIME INCREMENT   1.00    

  NUMBER OF EQUATIONS =      864     NUMBER OF FLOATING PT. OPERATIONS =  2.67E+05

     CHECK POINT   START OF SOLVER    

     CHECK POINT  END OF SOLVER       

       ELAPSED USER TIME (SEC)      =   0.0000    
       ELAPSED SYSTEM TIME (SEC)    =   0.0000    
       ELAPSED TOTAL CPU TIME (SEC) =   0.0000    
       ELAPSED WALLCLOCK TIME (SEC) =          0

               CONVERGENCE CHECKS FOR EQUILIBRIUM ITERATION     1


 AVERAGE HEAT FLUX                   133.       TIME AVG. HEAT FLUX    91.8    
 LARGEST RESIDUAL HEAT FLUX        -4.701E-02   AT NODE         72   DOF 11
   INSTANCE: SZYNA2D-1                                                                       
 LARGEST INCREMENT OF TEMP.         -24.7       AT NODE         73   DOF 11
   INSTANCE: SZYNA2D-1                                                                       
 LARGEST CORRECTION TO TEMP.         9.01       AT NODE         72   DOF 11
   INSTANCE: SZYNA2D-1                                                                       
 ESTIMATE OF TEMP.    CORRECTION   -8.770E-04
 HEAT FLUX EQUILIB. ACCEPTED BASED ON SMALL RESIDUAL AND ESTIMATED CORRECTION

 MAXIMUM NON-PRESCRIBED INCREMENT IN TEMPERATURE IS   -24.7    

 ITERATION SUMMARY FOR THE INCREMENT:   1 TOTAL ITERATIONS, OF WHICH
   0 ARE SEVERE DISCONTINUITY ITERATIONS AND  1 ARE EQUILIBRIUM ITERATIONS.

 TIME INCREMENT COMPLETED   1.00    ,  FRACTION OF STEP COMPLETED  1.908E-03
 STEP TIME COMPLETED        2.29    ,  TOTAL TIME COMPLETED         2.29    


  INCREMENT    11 STARTS. ATTEMPT NUMBER  1, TIME INCREMENT   1.00    

  NUMBER OF EQUATIONS =      864     NUMBER OF FLOATING PT. OPERATIONS =  2.67E+05

     CHECK POINT   START OF SOLVER    

     CHECK POINT  END OF SOLVER       

       ELAPSED USER TIME (SEC)      =   0.0000    
       ELAPSED SYSTEM TIME (SEC)    =   0.0000    
       ELAPSED TOTAL CPU TIME (SEC) =   0.0000    
       ELAPSED WALLCLOCK TIME (SEC) =          0

               CONVERGENCE CHECKS FOR EQUILIBRIUM ITERATION     1


 AVERAGE HEAT FLUX                   145.       TIME AVG. HEAT FLUX    96.7    
 LARGEST RESIDUAL HEAT FLUX        -1.260E-02   AT NODE         73   DOF 11
   INSTANCE: SZYNA2D-1                                                                       
 LARGEST INCREMENT OF TEMP.         -19.9       AT NODE         73   DOF 11
   INSTANCE: SZYNA2D-1                                                                       
 LARGEST CORRECTION TO TEMP.         4.75       AT NODE         73   DOF 11
   INSTANCE: SZYNA2D-1                                                                       
 ESTIMATE OF TEMP.    CORRECTION   -2.917E-04
 HEAT FLUX EQUILIB. ACCEPTED BASED ON SMALL RESIDUAL AND ESTIMATED CORRECTION

 MAXIMUM NON-PRESCRIBED INCREMENT IN TEMPERATURE IS   -19.9    

 ITERATION SUMMARY FOR THE INCREMENT:   1 TOTAL ITERATIONS, OF WHICH
   0 ARE SEVERE DISCONTINUITY ITERATIONS AND  1 ARE EQUILIBRIUM ITERATIONS.

 TIME INCREMENT COMPLETED   1.00    ,  FRACTION OF STEP COMPLETED  2.742E-03
 STEP TIME COMPLETED        3.29    ,  TOTAL TIME COMPLETED         3.29    


  INCREMENT    12 STARTS. ATTEMPT NUMBER  1, TIME INCREMENT   1.00    

  NUMBER OF EQUATIONS =      864     NUMBER OF FLOATING PT. OPERATIONS =  2.67E+05

     CHECK POINT   START OF SOLVER    

     CHECK POINT  END OF SOLVER       

       ELAPSED USER TIME (SEC)      =  0.10000    
       ELAPSED SYSTEM TIME (SEC)    =   0.0000    
       ELAPSED TOTAL CPU TIME (SEC) =  0.10000    
       ELAPSED WALLCLOCK TIME (SEC) =          0

               CONVERGENCE CHECKS FOR EQUILIBRIUM ITERATION     1


 AVERAGE HEAT FLUX                   155.       TIME AVG. HEAT FLUX    102.    
 LARGEST RESIDUAL HEAT FLUX        -4.730E-03   AT NODE         73   DOF 11
   INSTANCE: SZYNA2D-1                                                                       
 LARGEST INCREMENT OF TEMP.         -17.0       AT NODE        348   DOF 11
   INSTANCE: SZYNA2D-1                                                                       
 LARGEST CORRECTION TO TEMP.         2.96       AT NODE         73   DOF 11
   INSTANCE: SZYNA2D-1                                                                       
 ESTIMATE OF TEMP.    CORRECTION   -1.175E-04
 HEAT FLUX EQUILIB. ACCEPTED BASED ON SMALL RESIDUAL AND ESTIMATED CORRECTION

 MAXIMUM NON-PRESCRIBED INCREMENT IN TEMPERATURE IS   -17.0    

 ITERATION SUMMARY FOR THE INCREMENT:   1 TOTAL ITERATIONS, OF WHICH
   0 ARE SEVERE DISCONTINUITY ITERATIONS AND  1 ARE EQUILIBRIUM ITERATIONS.

 TIME INCREMENT COMPLETED   1.00    ,  FRACTION OF STEP COMPLETED  3.575E-03
 STEP TIME COMPLETED        4.29    ,  TOTAL TIME COMPLETED         4.29    


  INCREMENT    13 STARTS. ATTEMPT NUMBER  1, TIME INCREMENT   1.00    

  NUMBER OF EQUATIONS =      864     NUMBER OF FLOATING PT. OPERATIONS =  2.67E+05

     CHECK POINT   START OF SOLVER    

     CHECK POINT  END OF SOLVER       

       ELAPSED USER TIME (SEC)      =   0.0000    
       ELAPSED SYSTEM TIME (SEC)    =   0.0000    
       ELAPSED TOTAL CPU TIME (SEC) =   0.0000    
       ELAPSED WALLCLOCK TIME (SEC) =          0

               CONVERGENCE CHECKS FOR EQUILIBRIUM ITERATION     1


 AVERAGE HEAT FLUX                   162.       TIME AVG. HEAT FLUX    106.    
 LARGEST RESIDUAL HEAT FLUX        -2.219E-03   AT NODE         73   DOF 11
   INSTANCE: SZYNA2D-1                                                                       
 LARGEST INCREMENT OF TEMP.         -15.1       AT NODE        226   DOF 11
   INSTANCE: SZYNA2D-1                                                                       
 LARGEST CORRECTION TO TEMP.         2.06       AT NODE         73   DOF 11
   INSTANCE: SZYNA2D-1                                                                       
 ESTIMATE OF TEMP.    CORRECTION   -4.678E-05
 HEAT FLUX EQUILIB. ACCEPTED BASED ON SMALL RESIDUAL AND ESTIMATED CORRECTION

 MAXIMUM NON-PRESCRIBED INCREMENT IN TEMPERATURE IS   -15.1    

 ITERATION SUMMARY FOR THE INCREMENT:   1 TOTAL ITERATIONS, OF WHICH
   0 ARE SEVERE DISCONTINUITY ITERATIONS AND  1 ARE EQUILIBRIUM ITERATIONS.

 TIME INCREMENT COMPLETED   1.00    ,  FRACTION OF STEP COMPLETED  4.408E-03
 STEP TIME COMPLETED        5.29    ,  TOTAL TIME COMPLETED         5.29    


  INCREMENT    14 STARTS. ATTEMPT NUMBER  1, TIME INCREMENT   1.00    

  NUMBER OF EQUATIONS =      864     NUMBER OF FLOATING PT. OPERATIONS =  2.67E+05

     CHECK POINT   START OF SOLVER    

     CHECK POINT  END OF SOLVER       

       ELAPSED USER TIME (SEC)      =   0.0000    
       ELAPSED SYSTEM TIME (SEC)    =  0.10000    
       ELAPSED TOTAL CPU TIME (SEC) =  0.10000    
       ELAPSED WALLCLOCK TIME (SEC) =          0

               CONVERGENCE CHECKS FOR EQUILIBRIUM ITERATION     1


 AVERAGE HEAT FLUX                   168.       TIME AVG. HEAT FLUX    111.    
 LARGEST RESIDUAL HEAT FLUX        -1.204E-03   AT NODE         73   DOF 11
   INSTANCE: SZYNA2D-1                                                                       
 LARGEST INCREMENT OF TEMP.         -13.7       AT NODE        226   DOF 11
   INSTANCE: SZYNA2D-1                                                                       
 LARGEST CORRECTION TO TEMP.         1.54       AT NODE         73   DOF 11
   INSTANCE: SZYNA2D-1                                                                       
 ESTIMATE OF TEMP.    CORRECTION   -2.363E-05
 HEAT FLUX EQUILIB. ACCEPTED BASED ON SMALL RESIDUAL AND ESTIMATED CORRECTION

 MAXIMUM NON-PRESCRIBED INCREMENT IN TEMPERATURE IS   -13.7    

 ITERATION SUMMARY FOR THE INCREMENT:   1 TOTAL ITERATIONS, OF WHICH
   0 ARE SEVERE DISCONTINUITY ITERATIONS AND  1 ARE EQUILIBRIUM ITERATIONS.

 TIME INCREMENT COMPLETED   1.00    ,  FRACTION OF STEP COMPLETED  5.242E-03
 STEP TIME COMPLETED        6.29    ,  TOTAL TIME COMPLETED         6.29    


  INCREMENT    15 STARTS. ATTEMPT NUMBER  1, TIME INCREMENT   1.00    

  NUMBER OF EQUATIONS =      864     NUMBER OF FLOATING PT. OPERATIONS =  2.67E+05

     CHECK POINT   START OF SOLVER    

     CHECK POINT  END OF SOLVER       

       ELAPSED USER TIME (SEC)      =   0.0000    
       ELAPSED SYSTEM TIME (SEC)    =   0.0000    
       ELAPSED TOTAL CPU TIME (SEC) =   0.0000    
       ELAPSED WALLCLOCK TIME (SEC) =          0

               CONVERGENCE CHECKS FOR EQUILIBRIUM ITERATION     1


 AVERAGE HEAT FLUX                   174.       TIME AVG. HEAT FLUX    115.    
 LARGEST RESIDUAL HEAT FLUX        -7.216E-04   AT NODE         73   DOF 11
   INSTANCE: SZYNA2D-1                                                                       
 LARGEST INCREMENT OF TEMP.         -12.5       AT NODE        226   DOF 11
   INSTANCE: SZYNA2D-1                                                                       
 LARGEST CORRECTION TO TEMP.         1.20       AT NODE         73   DOF 11
   INSTANCE: SZYNA2D-1                                                                       
 ESTIMATE OF TEMP.    CORRECTION   -1.362E-05
 HEAT FLUX EQUILIB. ACCEPTED BASED ON SMALL RESIDUAL AND ESTIMATED CORRECTION

 MAXIMUM NON-PRESCRIBED INCREMENT IN TEMPERATURE IS   -12.5    

 ITERATION SUMMARY FOR THE INCREMENT:   1 TOTAL ITERATIONS, OF WHICH
   0 ARE SEVERE DISCONTINUITY ITERATIONS AND  1 ARE EQUILIBRIUM ITERATIONS.

 TIME INCREMENT COMPLETED   1.00    ,  FRACTION OF STEP COMPLETED  6.075E-03
 STEP TIME COMPLETED        7.29    ,  TOTAL TIME COMPLETED         7.29    


  INCREMENT    16 STARTS. ATTEMPT NUMBER  1, TIME INCREMENT   1.00    

  NUMBER OF EQUATIONS =      864     NUMBER OF FLOATING PT. OPERATIONS =  2.67E+05

     CHECK POINT   START OF SOLVER    

     CHECK POINT  END OF SOLVER       

       ELAPSED USER TIME (SEC)      =   0.0000    
       ELAPSED SYSTEM TIME (SEC)    =   0.0000    
       ELAPSED TOTAL CPU TIME (SEC) =   0.0000    
       ELAPSED WALLCLOCK TIME (SEC) =          0

               CONVERGENCE CHECKS FOR EQUILIBRIUM ITERATION     1


 AVERAGE HEAT FLUX                   178.       TIME AVG. HEAT FLUX    119.    
 LARGEST RESIDUAL HEAT FLUX        -4.638E-04   AT NODE         73   DOF 11
   INSTANCE: SZYNA2D-1                                                                       
 LARGEST INCREMENT OF TEMP.         -11.6       AT NODE        226   DOF 11
   INSTANCE: SZYNA2D-1                                                                       
 LARGEST CORRECTION TO TEMP.        0.977       AT NODE         73   DOF 11
   INSTANCE: SZYNA2D-1                                                                       
 ESTIMATE OF TEMP.    CORRECTION   -8.539E-06
 HEAT FLUX EQUILIB. ACCEPTED BASED ON SMALL RESIDUAL AND ESTIMATED CORRECTION

 MAXIMUM NON-PRESCRIBED INCREMENT IN TEMPERATURE IS   -11.6    

 ITERATION SUMMARY FOR THE INCREMENT:   1 TOTAL ITERATIONS, OF WHICH
   0 ARE SEVERE DISCONTINUITY ITERATIONS AND  1 ARE EQUILIBRIUM ITERATIONS.

 TIME INCREMENT COMPLETED   1.00    ,  FRACTION OF STEP COMPLETED  6.908E-03
 STEP TIME COMPLETED        8.29    ,  TOTAL TIME COMPLETED         8.29    


  INCREMENT    17 STARTS. ATTEMPT NUMBER  1, TIME INCREMENT   1.00    

  NUMBER OF EQUATIONS =      864     NUMBER OF FLOATING PT. OPERATIONS =  2.67E+05

     CHECK POINT   START OF SOLVER    

     CHECK POINT  END OF SOLVER       

       ELAPSED USER TIME (SEC)      =  0.10000    
       ELAPSED SYSTEM TIME (SEC)    =   0.0000    
       ELAPSED TOTAL CPU TIME (SEC) =  0.10000    
       ELAPSED WALLCLOCK TIME (SEC) =          0

               CONVERGENCE CHECKS FOR EQUILIBRIUM ITERATION     1


 AVERAGE HEAT FLUX                   181.       TIME AVG. HEAT FLUX    122.    
 LARGEST RESIDUAL HEAT FLUX        -3.138E-04   AT NODE         73   DOF 11
   INSTANCE: SZYNA2D-1                                                                       
 LARGEST INCREMENT OF TEMP.         -10.8       AT NODE        226   DOF 11
   INSTANCE: SZYNA2D-1                                                                       
 LARGEST CORRECTION TO TEMP.        0.813       AT NODE         73   DOF 11
   INSTANCE: SZYNA2D-1                                                                       
 ESTIMATE OF TEMP.    CORRECTION   -5.680E-06
 HEAT FLUX EQUILIB. ACCEPTED BASED ON SMALL RESIDUAL AND ESTIMATED CORRECTION

 MAXIMUM NON-PRESCRIBED INCREMENT IN TEMPERATURE IS   -10.8    

 ITERATION SUMMARY FOR THE INCREMENT:   1 TOTAL ITERATIONS, OF WHICH
   0 ARE SEVERE DISCONTINUITY ITERATIONS AND  1 ARE EQUILIBRIUM ITERATIONS.

 TIME INCREMENT COMPLETED   1.00    ,  FRACTION OF STEP COMPLETED  7.742E-03
 STEP TIME COMPLETED        9.29    ,  TOTAL TIME COMPLETED         9.29    


  INCREMENT    18 STARTS. ATTEMPT NUMBER  1, TIME INCREMENT   1.00    

  NUMBER OF EQUATIONS =      864     NUMBER OF FLOATING PT. OPERATIONS =  2.67E+05

     CHECK POINT   START OF SOLVER    

     CHECK POINT  END OF SOLVER       

       ELAPSED USER TIME (SEC)      =   0.0000    
       ELAPSED SYSTEM TIME (SEC)    =   0.0000    
       ELAPSED TOTAL CPU TIME (SEC) =   0.0000    
       ELAPSED WALLCLOCK TIME (SEC) =          0

               CONVERGENCE CHECKS FOR EQUILIBRIUM ITERATION     1


 AVERAGE HEAT FLUX                   179.       TIME AVG. HEAT FLUX    126.    
 LARGEST RESIDUAL HEAT FLUX        -8.004E-03   AT NODE         58   DOF 11
   INSTANCE: SZYNA2D-1                                                                       
 LARGEST INCREMENT OF TEMP.         -9.35       AT NODE        582   DOF 11
   INSTANCE: SZYNA2D-1                                                                       
 LARGEST CORRECTION TO TEMP.         4.14       AT NODE         58   DOF 11
   INSTANCE: SZYNA2D-1                                                                       
 ESTIMATE OF TEMP.    CORRECTION   -1.708E-04
 HEAT FLUX EQUILIB. ACCEPTED BASED ON SMALL RESIDUAL AND ESTIMATED CORRECTION

 MAXIMUM NON-PRESCRIBED INCREMENT IN TEMPERATURE IS   -9.35    

 ITERATION SUMMARY FOR THE INCREMENT:   1 TOTAL ITERATIONS, OF WHICH
   0 ARE SEVERE DISCONTINUITY ITERATIONS AND  1 ARE EQUILIBRIUM ITERATIONS.

 TIME INCREMENT COMPLETED   1.00    ,  FRACTION OF STEP COMPLETED  8.575E-03
 STEP TIME COMPLETED        10.3    ,  TOTAL TIME COMPLETED         10.3    


  INCREMENT    19 STARTS. ATTEMPT NUMBER  1, TIME INCREMENT   1.00    

  NUMBER OF EQUATIONS =      864     NUMBER OF FLOATING PT. OPERATIONS =  2.67E+05

     CHECK POINT   START OF SOLVER    

     CHECK POINT  END OF SOLVER       

       ELAPSED USER TIME (SEC)      =   0.0000    
       ELAPSED SYSTEM TIME (SEC)    =   0.0000    
       ELAPSED TOTAL CPU TIME (SEC) =   0.0000    
       ELAPSED WALLCLOCK TIME (SEC) =          1

               CONVERGENCE CHECKS FOR EQUILIBRIUM ITERATION     1


 AVERAGE HEAT FLUX                   159.       TIME AVG. HEAT FLUX    127.    
 LARGEST RESIDUAL HEAT FLUX        -5.820E-02   AT NODE         58   DOF 11
   INSTANCE: SZYNA2D-1                                                                       
 LARGEST INCREMENT OF TEMP.         -7.61       AT NODE        733   DOF 11
   INSTANCE: SZYNA2D-1                                                                       
 LARGEST CORRECTION TO TEMP.         11.2       AT NODE         58   DOF 11
   INSTANCE: SZYNA2D-1                                                                       
 ESTIMATE OF TEMP.    CORRECTION   -1.258E-03
 HEAT FLUX EQUILIB. ACCEPTED BASED ON SMALL RESIDUAL AND ESTIMATED CORRECTION

 MAXIMUM NON-PRESCRIBED INCREMENT IN TEMPERATURE IS   -7.61    

 ITERATION SUMMARY FOR THE INCREMENT:   1 TOTAL ITERATIONS, OF WHICH
   0 ARE SEVERE DISCONTINUITY ITERATIONS AND  1 ARE EQUILIBRIUM ITERATIONS.

 TIME INCREMENT COMPLETED   1.00    ,  FRACTION OF STEP COMPLETED  9.408E-03
 STEP TIME COMPLETED        11.3    ,  TOTAL TIME COMPLETED         11.3    


  INCREMENT    20 STARTS. ATTEMPT NUMBER  1, TIME INCREMENT   1.00    

  NUMBER OF EQUATIONS =      864     NUMBER OF FLOATING PT. OPERATIONS =  2.67E+05

     CHECK POINT   START OF SOLVER    

     CHECK POINT  END OF SOLVER       

       ELAPSED USER TIME (SEC)      =   0.0000    
       ELAPSED SYSTEM TIME (SEC)    =   0.0000    
       ELAPSED TOTAL CPU TIME (SEC) =   0.0000    
       ELAPSED WALLCLOCK TIME (SEC) =          0

               CONVERGENCE CHECKS FOR EQUILIBRIUM ITERATION     1


 AVERAGE HEAT FLUX                   134.       TIME AVG. HEAT FLUX    128.    
 LARGEST RESIDUAL HEAT FLUX        -2.792E-02   AT NODE         73   DOF 11
   INSTANCE: SZYNA2D-1                                                                       
 LARGEST INCREMENT OF TEMP.          12.5       AT NODE         52   DOF 11
   INSTANCE: SZYNA2D-1                                                                       
 LARGEST CORRECTION TO TEMP.         7.62       AT NODE         73   DOF 11
   INSTANCE: SZYNA2D-1                                                                       
 ESTIMATE OF TEMP.    CORRECTION   -7.639E-04
 HEAT FLUX EQUILIB. ACCEPTED BASED ON SMALL RESIDUAL AND ESTIMATED CORRECTION

 MAXIMUM NON-PRESCRIBED INCREMENT IN TEMPERATURE IS    12.5    

 ITERATION SUMMARY FOR THE INCREMENT:   1 TOTAL ITERATIONS, OF WHICH
   0 ARE SEVERE DISCONTINUITY ITERATIONS AND  1 ARE EQUILIBRIUM ITERATIONS.

 TIME INCREMENT COMPLETED   1.00    ,  FRACTION OF STEP COMPLETED  1.024E-02
 STEP TIME COMPLETED        12.3    ,  TOTAL TIME COMPLETED         12.3    


  INCREMENT    21 STARTS. ATTEMPT NUMBER  1, TIME INCREMENT   1.00    

  NUMBER OF EQUATIONS =      864     NUMBER OF FLOATING PT. OPERATIONS =  2.67E+05

     CHECK POINT   START OF SOLVER    

     CHECK POINT  END OF SOLVER       

       ELAPSED USER TIME (SEC)      =   0.0000    
       ELAPSED SYSTEM TIME (SEC)    =   0.0000    
       ELAPSED TOTAL CPU TIME (SEC) =   0.0000    
       ELAPSED WALLCLOCK TIME (SEC) =          0

               CONVERGENCE CHECKS FOR EQUILIBRIUM ITERATION     1


 AVERAGE HEAT FLUX                   113.       TIME AVG. HEAT FLUX    127.    
 LARGEST RESIDUAL HEAT FLUX        -4.566E-03   AT NODE         73   DOF 11
   INSTANCE: SZYNA2D-1                                                                       
 LARGEST INCREMENT OF TEMP.          15.1       AT NODE         59   DOF 11
   INSTANCE: SZYNA2D-1                                                                       
 LARGEST CORRECTION TO TEMP.         4.10       AT NODE        226   DOF 11
   INSTANCE: SZYNA2D-1                                                                       
 ESTIMATE OF TEMP.    CORRECTION   -6.446E-05
 HEAT FLUX EQUILIB. ACCEPTED BASED ON SMALL RESIDUAL AND ESTIMATED CORRECTION

 MAXIMUM NON-PRESCRIBED INCREMENT IN TEMPERATURE IS    15.1    

 ITERATION SUMMARY FOR THE INCREMENT:   1 TOTAL ITERATIONS, OF WHICH
   0 ARE SEVERE DISCONTINUITY ITERATIONS AND  1 ARE EQUILIBRIUM ITERATIONS.

 TIME INCREMENT COMPLETED   1.00    ,  FRACTION OF STEP COMPLETED  1.107E-02
 STEP TIME COMPLETED        13.3    ,  TOTAL TIME COMPLETED         13.3    


  INCREMENT    22 STARTS. ATTEMPT NUMBER  1, TIME INCREMENT   1.00    

  NUMBER OF EQUATIONS =      864     NUMBER OF FLOATING PT. OPERATIONS =  2.67E+05

     CHECK POINT   START OF SOLVER    

     CHECK POINT  END OF SOLVER       

       ELAPSED USER TIME (SEC)      =   0.0000    
       ELAPSED SYSTEM TIME (SEC)    =   0.0000    
       ELAPSED TOTAL CPU TIME (SEC) =   0.0000    
       ELAPSED WALLCLOCK TIME (SEC) =          0

               CONVERGENCE CHECKS FOR EQUILIBRIUM ITERATION     1


 AVERAGE HEAT FLUX                   103.       TIME AVG. HEAT FLUX    126.    
 LARGEST RESIDUAL HEAT FLUX        -2.624E-02   AT NODE        281   DOF 11
   INSTANCE: SZYNA2D-1                                                                       
 LARGEST INCREMENT OF TEMP.          9.56       AT NODE         73   DOF 11
   INSTANCE: SZYNA2D-1                                                                       
 LARGEST CORRECTION TO TEMP.        -6.97       AT NODE         52   DOF 11
   INSTANCE: SZYNA2D-1                                                                       
 ESTIMATE OF TEMP.    CORRECTION   -4.065E-04
 HEAT FLUX EQUILIB. ACCEPTED BASED ON SMALL RESIDUAL AND ESTIMATED CORRECTION

 MAXIMUM NON-PRESCRIBED INCREMENT IN TEMPERATURE IS    9.56    

 ITERATION SUMMARY FOR THE INCREMENT:   1 TOTAL ITERATIONS, OF WHICH
   0 ARE SEVERE DISCONTINUITY ITERATIONS AND  1 ARE EQUILIBRIUM ITERATIONS.

 TIME INCREMENT COMPLETED   1.00    ,  FRACTION OF STEP COMPLETED  1.191E-02
 STEP TIME COMPLETED        14.3    ,  TOTAL TIME COMPLETED         14.3    


  INCREMENT    23 STARTS. ATTEMPT NUMBER  1, TIME INCREMENT   1.00    

  NUMBER OF EQUATIONS =      864     NUMBER OF FLOATING PT. OPERATIONS =  2.67E+05

     CHECK POINT   START OF SOLVER    

     CHECK POINT  END OF SOLVER       

       ELAPSED USER TIME (SEC)      =   0.0000    
       ELAPSED SYSTEM TIME (SEC)    =   0.0000    
       ELAPSED TOTAL CPU TIME (SEC) =   0.0000    
       ELAPSED WALLCLOCK TIME (SEC) =          0

               CONVERGENCE CHECKS FOR EQUILIBRIUM ITERATION     1


 AVERAGE HEAT FLUX                   95.8       TIME AVG. HEAT FLUX    125.    
 LARGEST RESIDUAL HEAT FLUX        -4.108E-03   AT NODE        289   DOF 11
   INSTANCE: SZYNA2D-1                                                                       
 LARGEST INCREMENT OF TEMP.          6.99       AT NODE         73   DOF 11
   INSTANCE: SZYNA2D-1                                                                       
 LARGEST CORRECTION TO TEMP.        -2.76       AT NODE         52   DOF 11
   INSTANCE: SZYNA2D-1                                                                       
 ESTIMATE OF TEMP.    CORRECTION   -9.241E-05
 HEAT FLUX EQUILIB. ACCEPTED BASED ON SMALL RESIDUAL AND ESTIMATED CORRECTION

 MAXIMUM NON-PRESCRIBED INCREMENT IN TEMPERATURE IS    6.99    

 ITERATION SUMMARY FOR THE INCREMENT:   1 TOTAL ITERATIONS, OF WHICH
   0 ARE SEVERE DISCONTINUITY ITERATIONS AND  1 ARE EQUILIBRIUM ITERATIONS.

 TIME INCREMENT COMPLETED   1.00    ,  FRACTION OF STEP COMPLETED  1.274E-02
 STEP TIME COMPLETED        15.3    ,  TOTAL TIME COMPLETED         15.3    


  INCREMENT    24 STARTS. ATTEMPT NUMBER  1, TIME INCREMENT   1.00    

  NUMBER OF EQUATIONS =      864     NUMBER OF FLOATING PT. OPERATIONS =  2.67E+05

     CHECK POINT   START OF SOLVER    

     CHECK POINT  END OF SOLVER       

       ELAPSED USER TIME (SEC)      =   0.0000    
       ELAPSED SYSTEM TIME (SEC)    =   0.0000    
       ELAPSED TOTAL CPU TIME (SEC) =   0.0000    
       ELAPSED WALLCLOCK TIME (SEC) =          0

               CONVERGENCE CHECKS FOR EQUILIBRIUM ITERATION     1


 AVERAGE HEAT FLUX                   90.2       TIME AVG. HEAT FLUX    123.    
 LARGEST RESIDUAL HEAT FLUX        -1.185E-03   AT NODE         73   DOF 11
   INSTANCE: SZYNA2D-1                                                                       
 LARGEST INCREMENT OF TEMP.          5.50       AT NODE         73   DOF 11
   INSTANCE: SZYNA2D-1                                                                       
 LARGEST CORRECTION TO TEMP.        -1.50       AT NODE         73   DOF 11
   INSTANCE: SZYNA2D-1                                                                       
 ESTIMATE OF TEMP.    CORRECTION    2.808E-05
 HEAT FLUX EQUILIB. ACCEPTED BASED ON SMALL RESIDUAL AND ESTIMATED CORRECTION

 MAXIMUM NON-PRESCRIBED INCREMENT IN TEMPERATURE IS    5.50    

 ITERATION SUMMARY FOR THE INCREMENT:   1 TOTAL ITERATIONS, OF WHICH
   0 ARE SEVERE DISCONTINUITY ITERATIONS AND  1 ARE EQUILIBRIUM ITERATIONS.

 TIME INCREMENT COMPLETED   1.00    ,  FRACTION OF STEP COMPLETED  1.357E-02
 STEP TIME COMPLETED        16.3    ,  TOTAL TIME COMPLETED         16.3    


  INCREMENT    25 STARTS. ATTEMPT NUMBER  1, TIME INCREMENT   1.00    

  NUMBER OF EQUATIONS =      864     NUMBER OF FLOATING PT. OPERATIONS =  2.67E+05

     CHECK POINT   START OF SOLVER    

     CHECK POINT  END OF SOLVER       

       ELAPSED USER TIME (SEC)      =   0.0000    
       ELAPSED SYSTEM TIME (SEC)    =   0.0000    
       ELAPSED TOTAL CPU TIME (SEC) =   0.0000    
       ELAPSED WALLCLOCK TIME (SEC) =          0

               CONVERGENCE CHECKS FOR EQUILIBRIUM ITERATION     1


 AVERAGE HEAT FLUX                   85.6       TIME AVG. HEAT FLUX    122.    
 LARGEST RESIDUAL HEAT FLUX        -5.391E-04   AT NODE         73   DOF 11
   INSTANCE: SZYNA2D-1                                                                       
 LARGEST INCREMENT OF TEMP.          4.49       AT NODE         73   DOF 11
   INSTANCE: SZYNA2D-1                                                                       
 LARGEST CORRECTION TO TEMP.        -1.01       AT NODE         73   DOF 11
   INSTANCE: SZYNA2D-1                                                                       
 ESTIMATE OF TEMP.    CORRECTION    1.154E-05
 HEAT FLUX EQUILIB. ACCEPTED BASED ON SMALL RESIDUAL AND ESTIMATED CORRECTION

 MAXIMUM NON-PRESCRIBED INCREMENT IN TEMPERATURE IS    4.49    

 ITERATION SUMMARY FOR THE INCREMENT:   1 TOTAL ITERATIONS, OF WHICH
   0 ARE SEVERE DISCONTINUITY ITERATIONS AND  1 ARE EQUILIBRIUM ITERATIONS.

 TIME INCREMENT COMPLETED   1.00    ,  FRACTION OF STEP COMPLETED  1.441E-02
 STEP TIME COMPLETED        17.3    ,  TOTAL TIME COMPLETED         17.3    


  INCREMENT    26 STARTS. ATTEMPT NUMBER  1, TIME INCREMENT   1.00    

  NUMBER OF EQUATIONS =      864     NUMBER OF FLOATING PT. OPERATIONS =  2.67E+05

     CHECK POINT   START OF SOLVER    

     CHECK POINT  END OF SOLVER       

       ELAPSED USER TIME (SEC)      =   0.0000    
       ELAPSED SYSTEM TIME (SEC)    =   0.0000    
       ELAPSED TOTAL CPU TIME (SEC) =   0.0000    
       ELAPSED WALLCLOCK TIME (SEC) =          0

               CONVERGENCE CHECKS FOR EQUILIBRIUM ITERATION     1


 AVERAGE HEAT FLUX                   81.8       TIME AVG. HEAT FLUX    120.    
 LARGEST RESIDUAL HEAT FLUX        -2.907E-04   AT NODE         73   DOF 11
   INSTANCE: SZYNA2D-1                                                                       
 LARGEST INCREMENT OF TEMP.          3.75       AT NODE         73   DOF 11
   INSTANCE: SZYNA2D-1                                                                       
 LARGEST CORRECTION TO TEMP.       -0.736       AT NODE         73   DOF 11
   INSTANCE: SZYNA2D-1                                                                       
 ESTIMATE OF TEMP.    CORRECTION    5.242E-06
 HEAT FLUX EQUILIB. ACCEPTED BASED ON SMALL RESIDUAL AND ESTIMATED CORRECTION

 MAXIMUM NON-PRESCRIBED INCREMENT IN TEMPERATURE IS    3.75    

 ITERATION SUMMARY FOR THE INCREMENT:   1 TOTAL ITERATIONS, OF WHICH
   0 ARE SEVERE DISCONTINUITY ITERATIONS AND  1 ARE EQUILIBRIUM ITERATIONS.

 TIME INCREMENT COMPLETED   1.00    ,  FRACTION OF STEP COMPLETED  1.524E-02
 STEP TIME COMPLETED        18.3    ,  TOTAL TIME COMPLETED         18.3    


  INCREMENT    27 STARTS. ATTEMPT NUMBER  1, TIME INCREMENT   1.00    

  NUMBER OF EQUATIONS =      864     NUMBER OF FLOATING PT. OPERATIONS =  2.67E+05

     CHECK POINT   START OF SOLVER    

     CHECK POINT  END OF SOLVER       

       ELAPSED USER TIME (SEC)      =   0.0000    
       ELAPSED SYSTEM TIME (SEC)    =   0.0000    
       ELAPSED TOTAL CPU TIME (SEC) =   0.0000    
       ELAPSED WALLCLOCK TIME (SEC) =          0

               CONVERGENCE CHECKS FOR EQUILIBRIUM ITERATION     1


 AVERAGE HEAT FLUX                   78.4       TIME AVG. HEAT FLUX    119.    
 LARGEST RESIDUAL HEAT FLUX        -1.747E-04   AT NODE         73   DOF 11
   INSTANCE: SZYNA2D-1                                                                       
 LARGEST INCREMENT OF TEMP.          3.18       AT NODE         73   DOF 11
   INSTANCE: SZYNA2D-1                                                                       
 LARGEST CORRECTION TO TEMP.       -0.569       AT NODE         73   DOF 11
   INSTANCE: SZYNA2D-1                                                                       
 ESTIMATE OF TEMP.    CORRECTION    2.925E-06
 HEAT FLUX EQUILIB. ACCEPTED BASED ON SMALL RESIDUAL AND ESTIMATED CORRECTION

 MAXIMUM NON-PRESCRIBED INCREMENT IN TEMPERATURE IS    3.18    

 ITERATION SUMMARY FOR THE INCREMENT:   1 TOTAL ITERATIONS, OF WHICH
   0 ARE SEVERE DISCONTINUITY ITERATIONS AND  1 ARE EQUILIBRIUM ITERATIONS.

 TIME INCREMENT COMPLETED   1.00    ,  FRACTION OF STEP COMPLETED  1.607E-02
 STEP TIME COMPLETED        19.3    ,  TOTAL TIME COMPLETED         19.3    


  INCREMENT    28 STARTS. ATTEMPT NUMBER  1, TIME INCREMENT   1.00    

  NUMBER OF EQUATIONS =      864     NUMBER OF FLOATING PT. OPERATIONS =  2.67E+05

     CHECK POINT   START OF SOLVER    

     CHECK POINT  END OF SOLVER       

       ELAPSED USER TIME (SEC)      =   0.0000    
       ELAPSED SYSTEM TIME (SEC)    =   0.0000    
       ELAPSED TOTAL CPU TIME (SEC) =   0.0000    
       ELAPSED WALLCLOCK TIME (SEC) =          0

               CONVERGENCE CHECKS FOR EQUILIBRIUM ITERATION     1


 AVERAGE HEAT FLUX                   75.5       TIME AVG. HEAT FLUX    117.    
 LARGEST RESIDUAL HEAT FLUX        -1.129E-04   AT NODE         73   DOF 11
   INSTANCE: SZYNA2D-1                                                                       
 LARGEST INCREMENT OF TEMP.         -2.81       AT NODE        761   DOF 11
   INSTANCE: SZYNA2D-1                                                                       
 LARGEST CORRECTION TO TEMP.       -0.456       AT NODE         73   DOF 11
   INSTANCE: SZYNA2D-1                                                                       
 ESTIMATE OF TEMP.    CORRECTION    1.868E-06
 HEAT FLUX EQUILIB. ACCEPTED BASED ON SMALL RESIDUAL AND ESTIMATED CORRECTION

 MAXIMUM NON-PRESCRIBED INCREMENT IN TEMPERATURE IS   -2.81    

 ITERATION SUMMARY FOR THE INCREMENT:   1 TOTAL ITERATIONS, OF WHICH
   0 ARE SEVERE DISCONTINUITY ITERATIONS AND  1 ARE EQUILIBRIUM ITERATIONS.

 TIME INCREMENT COMPLETED   1.00    ,  FRACTION OF STEP COMPLETED  1.691E-02
 STEP TIME COMPLETED        20.3    ,  TOTAL TIME COMPLETED         20.3    


  INCREMENT    29 STARTS. ATTEMPT NUMBER  1, TIME INCREMENT   1.00    

  NUMBER OF EQUATIONS =      864     NUMBER OF FLOATING PT. OPERATIONS =  2.67E+05

     CHECK POINT   START OF SOLVER    

     CHECK POINT  END OF SOLVER       

       ELAPSED USER TIME (SEC)      =   0.0000    
       ELAPSED SYSTEM TIME (SEC)    =   0.0000    
       ELAPSED TOTAL CPU TIME (SEC) =   0.0000    
       ELAPSED WALLCLOCK TIME (SEC) =          0

               CONVERGENCE CHECKS FOR EQUILIBRIUM ITERATION     1


 AVERAGE HEAT FLUX                   72.9       TIME AVG. HEAT FLUX    116.    
 LARGEST RESIDUAL HEAT FLUX        -7.693E-05   AT NODE         73   DOF 11
   INSTANCE: SZYNA2D-1                                                                       
 LARGEST INCREMENT OF TEMP.         -2.62       AT NODE        743   DOF 11
   INSTANCE: SZYNA2D-1                                                                       
 LARGEST CORRECTION TO TEMP.       -0.376       AT NODE         73   DOF 11
   INSTANCE: SZYNA2D-1                                                                       
 ESTIMATE OF TEMP.    CORRECTION    1.307E-06
 HEAT FLUX EQUILIB. ACCEPTED BASED ON SMALL RESIDUAL AND ESTIMATED CORRECTION

 MAXIMUM NON-PRESCRIBED INCREMENT IN TEMPERATURE IS   -2.62    

 ITERATION SUMMARY FOR THE INCREMENT:   1 TOTAL ITERATIONS, OF WHICH
   0 ARE SEVERE DISCONTINUITY ITERATIONS AND  1 ARE EQUILIBRIUM ITERATIONS.

 TIME INCREMENT COMPLETED   1.00    ,  FRACTION OF STEP COMPLETED  1.774E-02
 STEP TIME COMPLETED        21.3    ,  TOTAL TIME COMPLETED         21.3    


  INCREMENT    30 STARTS. ATTEMPT NUMBER  1, TIME INCREMENT   1.00    

  NUMBER OF EQUATIONS =      864     NUMBER OF FLOATING PT. OPERATIONS =  2.67E+05

     CHECK POINT   START OF SOLVER    

     CHECK POINT  END OF SOLVER       

       ELAPSED USER TIME (SEC)      =  0.10000    
       ELAPSED SYSTEM TIME (SEC)    =   0.0000    
       ELAPSED TOTAL CPU TIME (SEC) =  0.10000    
       ELAPSED WALLCLOCK TIME (SEC) =          0

               CONVERGENCE CHECKS FOR EQUILIBRIUM ITERATION     1


 AVERAGE HEAT FLUX                   70.6       TIME AVG. HEAT FLUX    114.    
 LARGEST RESIDUAL HEAT FLUX        -5.445E-05   AT NODE         73   DOF 11
   INSTANCE: SZYNA2D-1                                                                       
 LARGEST INCREMENT OF TEMP.         -2.46       AT NODE        743   DOF 11
   INSTANCE: SZYNA2D-1                                                                       
 LARGEST CORRECTION TO TEMP.       -0.315       AT NODE         73   DOF 11
   INSTANCE: SZYNA2D-1                                                                       
 ESTIMATE OF TEMP.    CORRECTION    9.739E-07
 HEAT FLUX EQUILIB. ACCEPTED BASED ON SMALL RESIDUAL AND ESTIMATED CORRECTION

 MAXIMUM NON-PRESCRIBED INCREMENT IN TEMPERATURE IS   -2.46    

 ITERATION SUMMARY FOR THE INCREMENT:   1 TOTAL ITERATIONS, OF WHICH
   0 ARE SEVERE DISCONTINUITY ITERATIONS AND  1 ARE EQUILIBRIUM ITERATIONS.

 TIME INCREMENT COMPLETED   1.00    ,  FRACTION OF STEP COMPLETED  1.857E-02
 STEP TIME COMPLETED        22.3    ,  TOTAL TIME COMPLETED         22.3    


  INCREMENT    31 STARTS. ATTEMPT NUMBER  1, TIME INCREMENT   1.00    

  NUMBER OF EQUATIONS =      864     NUMBER OF FLOATING PT. OPERATIONS =  2.67E+05

     CHECK POINT   START OF SOLVER    

     CHECK POINT  END OF SOLVER       

       ELAPSED USER TIME (SEC)      =   0.0000    
       ELAPSED SYSTEM TIME (SEC)    =   0.0000    
       ELAPSED TOTAL CPU TIME (SEC) =   0.0000    
       ELAPSED WALLCLOCK TIME (SEC) =          0

               CONVERGENCE CHECKS FOR EQUILIBRIUM ITERATION     1


 AVERAGE HEAT FLUX                   68.5       TIME AVG. HEAT FLUX    113.    
 LARGEST RESIDUAL HEAT FLUX        -3.967E-05   AT NODE         73   DOF 11
   INSTANCE: SZYNA2D-1                                                                       
 LARGEST INCREMENT OF TEMP.         -2.33       AT NODE        707   DOF 11
   INSTANCE: SZYNA2D-1                                                                       
 LARGEST CORRECTION TO TEMP.       -0.269       AT NODE         73   DOF 11
   INSTANCE: SZYNA2D-1                                                                       
 ESTIMATE OF TEMP.    CORRECTION    7.571E-07
 HEAT FLUX EQUILIB. ACCEPTED BASED ON SMALL RESIDUAL AND ESTIMATED CORRECTION

 MAXIMUM NON-PRESCRIBED INCREMENT IN TEMPERATURE IS   -2.33    

 ITERATION SUMMARY FOR THE INCREMENT:   1 TOTAL ITERATIONS, OF WHICH
   0 ARE SEVERE DISCONTINUITY ITERATIONS AND  1 ARE EQUILIBRIUM ITERATIONS.

 TIME INCREMENT COMPLETED   1.00    ,  FRACTION OF STEP COMPLETED  1.941E-02
 STEP TIME COMPLETED        23.3    ,  TOTAL TIME COMPLETED         23.3    


  INCREMENT    32 STARTS. ATTEMPT NUMBER  1, TIME INCREMENT   1.00    

  NUMBER OF EQUATIONS =      864     NUMBER OF FLOATING PT. OPERATIONS =  2.67E+05

     CHECK POINT   START OF SOLVER    

     CHECK POINT  END OF SOLVER       

       ELAPSED USER TIME (SEC)      =   0.0000    
       ELAPSED SYSTEM TIME (SEC)    =   0.0000    
       ELAPSED TOTAL CPU TIME (SEC) =   0.0000    
       ELAPSED WALLCLOCK TIME (SEC) =          0

               CONVERGENCE CHECKS FOR EQUILIBRIUM ITERATION     1


 AVERAGE HEAT FLUX                   66.7       TIME AVG. HEAT FLUX    111.    
 LARGEST RESIDUAL HEAT FLUX        -2.954E-05   AT NODE         73   DOF 11
   INSTANCE: SZYNA2D-1                                                                       
 LARGEST INCREMENT OF TEMP.         -2.21       AT NODE        707   DOF 11
   INSTANCE: SZYNA2D-1                                                                       
 LARGEST CORRECTION TO TEMP.       -0.232       AT NODE         73   DOF 11
   INSTANCE: SZYNA2D-1                                                                       
 ESTIMATE OF TEMP.    CORRECTION   -5.723E-07
 HEAT FLUX EQUILIB. ACCEPTED BASED ON SMALL RESIDUAL AND ESTIMATED CORRECTION

 MAXIMUM NON-PRESCRIBED INCREMENT IN TEMPERATURE IS   -2.21    

 ITERATION SUMMARY FOR THE INCREMENT:   1 TOTAL ITERATIONS, OF WHICH
   0 ARE SEVERE DISCONTINUITY ITERATIONS AND  1 ARE EQUILIBRIUM ITERATIONS.

 TIME INCREMENT COMPLETED   1.00    ,  FRACTION OF STEP COMPLETED  2.024E-02
 STEP TIME COMPLETED        24.3    ,  TOTAL TIME COMPLETED         24.3    


  INCREMENT    33 STARTS. ATTEMPT NUMBER  1, TIME INCREMENT   1.00    

  NUMBER OF EQUATIONS =      864     NUMBER OF FLOATING PT. OPERATIONS =  2.67E+05

     CHECK POINT   START OF SOLVER    

     CHECK POINT  END OF SOLVER       

       ELAPSED USER TIME (SEC)      =  0.10000    
       ELAPSED SYSTEM TIME (SEC)    =   0.0000    
       ELAPSED TOTAL CPU TIME (SEC) =  0.10000    
       ELAPSED WALLCLOCK TIME (SEC) =          0

               CONVERGENCE CHECKS FOR EQUILIBRIUM ITERATION     1


 AVERAGE HEAT FLUX                   71.6       TIME AVG. HEAT FLUX    110.    
 LARGEST RESIDUAL HEAT FLUX        -1.012E-02   AT NODE         58   DOF 11
   INSTANCE: SZYNA2D-1                                                                       
 LARGEST INCREMENT OF TEMP.         -3.85       AT NODE         52   DOF 11
   INSTANCE: SZYNA2D-1                                                                       
 LARGEST CORRECTION TO TEMP.        -4.29       AT NODE         58   DOF 11
   INSTANCE: SZYNA2D-1                                                                       
 ESTIMATE OF TEMP.    CORRECTION   -2.140E-04
 HEAT FLUX EQUILIB. ACCEPTED BASED ON SMALL RESIDUAL AND ESTIMATED CORRECTION

 MAXIMUM NON-PRESCRIBED INCREMENT IN TEMPERATURE IS   -3.85    

 ITERATION SUMMARY FOR THE INCREMENT:   1 TOTAL ITERATIONS, OF WHICH
   0 ARE SEVERE DISCONTINUITY ITERATIONS AND  1 ARE EQUILIBRIUM ITERATIONS.

 TIME INCREMENT COMPLETED   1.00    ,  FRACTION OF STEP COMPLETED  2.107E-02
 STEP TIME COMPLETED        25.3    ,  TOTAL TIME COMPLETED         25.3    


  INCREMENT    34 STARTS. ATTEMPT NUMBER  1, TIME INCREMENT   1.00    

  NUMBER OF EQUATIONS =      864     NUMBER OF FLOATING PT. OPERATIONS =  2.67E+05

     CHECK POINT   START OF SOLVER    

     CHECK POINT  END OF SOLVER       

       ELAPSED USER TIME (SEC)      =   0.0000    
       ELAPSED SYSTEM TIME (SEC)    =   0.0000    
       ELAPSED TOTAL CPU TIME (SEC) =   0.0000    
       ELAPSED WALLCLOCK TIME (SEC) =          0

               CONVERGENCE CHECKS FOR EQUILIBRIUM ITERATION     1


 AVERAGE HEAT FLUX                   94.6       TIME AVG. HEAT FLUX    109.    
 LARGEST RESIDUAL HEAT FLUX        -8.092E-02   AT NODE         58   DOF 11
   INSTANCE: SZYNA2D-1                                                                       
 LARGEST INCREMENT OF TEMP.         -15.0       AT NODE         58   DOF 11
   INSTANCE: SZYNA2D-1                                                                       
 LARGEST CORRECTION TO TEMP.        -12.2       AT NODE         58   DOF 11
   INSTANCE: SZYNA2D-1                                                                       
 ESTIMATE OF TEMP.    CORRECTION   -1.771E-03
 HEAT FLUX EQUILIB. ACCEPTED BASED ON SMALL RESIDUAL AND ESTIMATED CORRECTION

 MAXIMUM NON-PRESCRIBED INCREMENT IN TEMPERATURE IS   -15.0    

 ITERATION SUMMARY FOR THE INCREMENT:   1 TOTAL ITERATIONS, OF WHICH
   0 ARE SEVERE DISCONTINUITY ITERATIONS AND  1 ARE EQUILIBRIUM ITERATIONS.

 TIME INCREMENT COMPLETED   1.00    ,  FRACTION OF STEP COMPLETED  2.191E-02
 STEP TIME COMPLETED        26.3    ,  TOTAL TIME COMPLETED         26.3    


  INCREMENT    35 STARTS. ATTEMPT NUMBER  1, TIME INCREMENT   1.00    

  NUMBER OF EQUATIONS =      864     NUMBER OF FLOATING PT. OPERATIONS =  2.67E+05

     CHECK POINT   START OF SOLVER    

     CHECK POINT  END OF SOLVER       

       ELAPSED USER TIME (SEC)      =   0.0000    
       ELAPSED SYSTEM TIME (SEC)    =   0.0000    
       ELAPSED TOTAL CPU TIME (SEC) =   0.0000    
       ELAPSED WALLCLOCK TIME (SEC) =          0

               CONVERGENCE CHECKS FOR EQUILIBRIUM ITERATION     1


 AVERAGE HEAT FLUX                   122.       TIME AVG. HEAT FLUX    110.    
 LARGEST RESIDUAL HEAT FLUX        -2.714E-02   AT NODE         73   DOF 11
   INSTANCE: SZYNA2D-1                                                                       
 LARGEST INCREMENT OF TEMP.         -21.9       AT NODE         58   DOF 11
   INSTANCE: SZYNA2D-1                                                                       
 LARGEST CORRECTION TO TEMP.        -7.27       AT NODE         73   DOF 11
   INSTANCE: SZYNA2D-1                                                                       
 ESTIMATE OF TEMP.    CORRECTION   -6.806E-04
 HEAT FLUX EQUILIB. ACCEPTED BASED ON SMALL RESIDUAL AND ESTIMATED CORRECTION

 MAXIMUM NON-PRESCRIBED INCREMENT IN TEMPERATURE IS   -21.9    

 ITERATION SUMMARY FOR THE INCREMENT:   1 TOTAL ITERATIONS, OF WHICH
   0 ARE SEVERE DISCONTINUITY ITERATIONS AND  1 ARE EQUILIBRIUM ITERATIONS.

 TIME INCREMENT COMPLETED   1.00    ,  FRACTION OF STEP COMPLETED  2.274E-02
 STEP TIME COMPLETED        27.3    ,  TOTAL TIME COMPLETED         27.3    


  INCREMENT    36 STARTS. ATTEMPT NUMBER  1, TIME INCREMENT   1.00    

  NUMBER OF EQUATIONS =      864     NUMBER OF FLOATING PT. OPERATIONS =  2.67E+05

     CHECK POINT   START OF SOLVER    

     CHECK POINT  END OF SOLVER       

       ELAPSED USER TIME (SEC)      =   0.0000    
       ELAPSED SYSTEM TIME (SEC)    =   0.0000    
       ELAPSED TOTAL CPU TIME (SEC) =   0.0000    
       ELAPSED WALLCLOCK TIME (SEC) =          0

               CONVERGENCE CHECKS FOR EQUILIBRIUM ITERATION     1


 AVERAGE HEAT FLUX                   146.       TIME AVG. HEAT FLUX    111.    
 LARGEST RESIDUAL HEAT FLUX        -1.919E-03   AT NODE        279   DOF 11
   INSTANCE: SZYNA2D-1                                                                       
 LARGEST INCREMENT OF TEMP.         -23.2       AT NODE         59   DOF 11
   INSTANCE: SZYNA2D-1                                                                       
 LARGEST CORRECTION TO TEMP.        -3.50       AT NODE        816   DOF 11
   INSTANCE: SZYNA2D-1                                                                       
 ESTIMATE OF TEMP.    CORRECTION   -2.348E-05
 HEAT FLUX EQUILIB. ACCEPTED BASED ON SMALL RESIDUAL AND ESTIMATED CORRECTION

 MAXIMUM NON-PRESCRIBED INCREMENT IN TEMPERATURE IS   -23.2    

 ITERATION SUMMARY FOR THE INCREMENT:   1 TOTAL ITERATIONS, OF WHICH
   0 ARE SEVERE DISCONTINUITY ITERATIONS AND  1 ARE EQUILIBRIUM ITERATIONS.

 TIME INCREMENT COMPLETED   1.00    ,  FRACTION OF STEP COMPLETED  2.357E-02
 STEP TIME COMPLETED        28.3    ,  TOTAL TIME COMPLETED         28.3    


  INCREMENT    37 STARTS. ATTEMPT NUMBER  1, TIME INCREMENT   1.00    

  NUMBER OF EQUATIONS =      864     NUMBER OF FLOATING PT. OPERATIONS =  2.67E+05

     CHECK POINT   START OF SOLVER    

     CHECK POINT  END OF SOLVER       

       ELAPSED USER TIME (SEC)      =   0.0000    
       ELAPSED SYSTEM TIME (SEC)    =   0.0000    
       ELAPSED TOTAL CPU TIME (SEC) =   0.0000    
       ELAPSED WALLCLOCK TIME (SEC) =          0

               CONVERGENCE CHECKS FOR EQUILIBRIUM ITERATION     1


 AVERAGE HEAT FLUX                   156.       TIME AVG. HEAT FLUX    112.    
 LARGEST RESIDUAL HEAT FLUX        -2.455E-02   AT NODE        281   DOF 11
   INSTANCE: SZYNA2D-1                                                                       
 LARGEST INCREMENT OF TEMP.         -16.8       AT NODE         73   DOF 11
   INSTANCE: SZYNA2D-1                                                                       
 LARGEST CORRECTION TO TEMP.         7.16       AT NODE         52   DOF 11
   INSTANCE: SZYNA2D-1                                                                       
 ESTIMATE OF TEMP.    CORRECTION   -3.781E-04
 HEAT FLUX EQUILIB. ACCEPTED BASED ON SMALL RESIDUAL AND ESTIMATED CORRECTION

 MAXIMUM NON-PRESCRIBED INCREMENT IN TEMPERATURE IS   -16.8    

 ITERATION SUMMARY FOR THE INCREMENT:   1 TOTAL ITERATIONS, OF WHICH
   0 ARE SEVERE DISCONTINUITY ITERATIONS AND  1 ARE EQUILIBRIUM ITERATIONS.

 TIME INCREMENT COMPLETED   1.00    ,  FRACTION OF STEP COMPLETED  2.441E-02
 STEP TIME COMPLETED        29.3    ,  TOTAL TIME COMPLETED         29.3    


  INCREMENT    38 STARTS. ATTEMPT NUMBER  1, TIME INCREMENT   1.00    

  NUMBER OF EQUATIONS =      864     NUMBER OF FLOATING PT. OPERATIONS =  2.67E+05

     CHECK POINT   START OF SOLVER    

     CHECK POINT  END OF SOLVER       

       ELAPSED USER TIME (SEC)      =   0.0000    
       ELAPSED SYSTEM TIME (SEC)    =   0.0000    
       ELAPSED TOTAL CPU TIME (SEC) =   0.0000    
       ELAPSED WALLCLOCK TIME (SEC) =          0

               CONVERGENCE CHECKS FOR EQUILIBRIUM ITERATION     1


 AVERAGE HEAT FLUX                   163.       TIME AVG. HEAT FLUX    113.    
 LARGEST RESIDUAL HEAT FLUX        -4.227E-03   AT NODE         73   DOF 11
   INSTANCE: SZYNA2D-1                                                                       
 LARGEST INCREMENT OF TEMP.         -13.8       AT NODE         73   DOF 11
   INSTANCE: SZYNA2D-1                                                                       
 LARGEST CORRECTION TO TEMP.         3.07       AT NODE         73   DOF 11
   INSTANCE: SZYNA2D-1                                                                       
 ESTIMATE OF TEMP.    CORRECTION   -9.147E-05
 HEAT FLUX EQUILIB. ACCEPTED BASED ON SMALL RESIDUAL AND ESTIMATED CORRECTION

 MAXIMUM NON-PRESCRIBED INCREMENT IN TEMPERATURE IS   -13.8    

 ITERATION SUMMARY FOR THE INCREMENT:   1 TOTAL ITERATIONS, OF WHICH
   0 ARE SEVERE DISCONTINUITY ITERATIONS AND  1 ARE EQUILIBRIUM ITERATIONS.

 TIME INCREMENT COMPLETED   1.00    ,  FRACTION OF STEP COMPLETED  2.524E-02
 STEP TIME COMPLETED        30.3    ,  TOTAL TIME COMPLETED         30.3    


  INCREMENT    39 STARTS. ATTEMPT NUMBER  1, TIME INCREMENT   1.00    

  NUMBER OF EQUATIONS =      864     NUMBER OF FLOATING PT. OPERATIONS =  2.67E+05

     CHECK POINT   START OF SOLVER    

     CHECK POINT  END OF SOLVER       

       ELAPSED USER TIME (SEC)      =   0.0000    
       ELAPSED SYSTEM TIME (SEC)    =   0.0000    
       ELAPSED TOTAL CPU TIME (SEC) =   0.0000    
       ELAPSED WALLCLOCK TIME (SEC) =          1

               CONVERGENCE CHECKS FOR EQUILIBRIUM ITERATION     1


 AVERAGE HEAT FLUX                   169.       TIME AVG. HEAT FLUX    115.    
 LARGEST RESIDUAL HEAT FLUX        -1.506E-03   AT NODE         73   DOF 11
   INSTANCE: SZYNA2D-1                                                                       
 LARGEST INCREMENT OF TEMP.         -12.0       AT NODE        348   DOF 11
   INSTANCE: SZYNA2D-1                                                                       
 LARGEST CORRECTION TO TEMP.         1.85       AT NODE         73   DOF 11
   INSTANCE: SZYNA2D-1                                                                       
 ESTIMATE OF TEMP.    CORRECTION   -4.017E-05
 HEAT FLUX EQUILIB. ACCEPTED BASED ON SMALL RESIDUAL AND ESTIMATED CORRECTION

 MAXIMUM NON-PRESCRIBED INCREMENT IN TEMPERATURE IS   -12.0    

 ITERATION SUMMARY FOR THE INCREMENT:   1 TOTAL ITERATIONS, OF WHICH
   0 ARE SEVERE DISCONTINUITY ITERATIONS AND  1 ARE EQUILIBRIUM ITERATIONS.

 TIME INCREMENT COMPLETED   1.00    ,  FRACTION OF STEP COMPLETED  2.608E-02
 STEP TIME COMPLETED        31.3    ,  TOTAL TIME COMPLETED         31.3    


  INCREMENT    40 STARTS. ATTEMPT NUMBER  1, TIME INCREMENT   1.00    

  NUMBER OF EQUATIONS =      864     NUMBER OF FLOATING PT. OPERATIONS =  2.67E+05

     CHECK POINT   START OF SOLVER    

     CHECK POINT  END OF SOLVER       

       ELAPSED USER TIME (SEC)      =   0.0000    
       ELAPSED SYSTEM TIME (SEC)    =   0.0000    
       ELAPSED TOTAL CPU TIME (SEC) =   0.0000    
       ELAPSED WALLCLOCK TIME (SEC) =          0

               CONVERGENCE CHECKS FOR EQUILIBRIUM ITERATION     1


 AVERAGE HEAT FLUX                   173.       TIME AVG. HEAT FLUX    116.    
 LARGEST RESIDUAL HEAT FLUX        -7.056E-04   AT NODE         73   DOF 11
   INSTANCE: SZYNA2D-1                                                                       
 LARGEST INCREMENT OF TEMP.         -10.8       AT NODE        226   DOF 11
   INSTANCE: SZYNA2D-1                                                                       
 LARGEST CORRECTION TO TEMP.         1.28       AT NODE         73   DOF 11
   INSTANCE: SZYNA2D-1                                                                       
 ESTIMATE OF TEMP.    CORRECTION   -1.518E-05
 HEAT FLUX EQUILIB. ACCEPTED BASED ON SMALL RESIDUAL AND ESTIMATED CORRECTION

 MAXIMUM NON-PRESCRIBED INCREMENT IN TEMPERATURE IS   -10.8    

 ITERATION SUMMARY FOR THE INCREMENT:   1 TOTAL ITERATIONS, OF WHICH
   0 ARE SEVERE DISCONTINUITY ITERATIONS AND  1 ARE EQUILIBRIUM ITERATIONS.

 TIME INCREMENT COMPLETED   1.00    ,  FRACTION OF STEP COMPLETED  2.691E-02
 STEP TIME COMPLETED        32.3    ,  TOTAL TIME COMPLETED         32.3    


  INCREMENT    41 STARTS. ATTEMPT NUMBER  1, TIME INCREMENT   1.00    

  NUMBER OF EQUATIONS =      864     NUMBER OF FLOATING PT. OPERATIONS =  2.67E+05

     CHECK POINT   START OF SOLVER    

     CHECK POINT  END OF SOLVER       

       ELAPSED USER TIME (SEC)      =   0.0000    
       ELAPSED SYSTEM TIME (SEC)    =  0.10000    
       ELAPSED TOTAL CPU TIME (SEC) =  0.10000    
       ELAPSED WALLCLOCK TIME (SEC) =          0

               CONVERGENCE CHECKS FOR EQUILIBRIUM ITERATION     1


 AVERAGE HEAT FLUX                   177.       TIME AVG. HEAT FLUX    118.    
 LARGEST RESIDUAL HEAT FLUX        -3.902E-04   AT NODE         73   DOF 11
   INSTANCE: SZYNA2D-1                                                                       
 LARGEST INCREMENT OF TEMP.         -9.93       AT NODE        226   DOF 11
   INSTANCE: SZYNA2D-1                                                                       
 LARGEST CORRECTION TO TEMP.        0.965       AT NODE         73   DOF 11
   INSTANCE: SZYNA2D-1                                                                       
 ESTIMATE OF TEMP.    CORRECTION   -7.638E-06
 HEAT FLUX EQUILIB. ACCEPTED BASED ON SMALL RESIDUAL AND ESTIMATED CORRECTION

 MAXIMUM NON-PRESCRIBED INCREMENT IN TEMPERATURE IS   -9.93    

 ITERATION SUMMARY FOR THE INCREMENT:   1 TOTAL ITERATIONS, OF WHICH
   0 ARE SEVERE DISCONTINUITY ITERATIONS AND  1 ARE EQUILIBRIUM ITERATIONS.

 TIME INCREMENT COMPLETED   1.00    ,  FRACTION OF STEP COMPLETED  2.774E-02
 STEP TIME COMPLETED        33.3    ,  TOTAL TIME COMPLETED         33.3    


  INCREMENT    42 STARTS. ATTEMPT NUMBER  1, TIME INCREMENT   1.00    

  NUMBER OF EQUATIONS =      864     NUMBER OF FLOATING PT. OPERATIONS =  2.67E+05

     CHECK POINT   START OF SOLVER    

     CHECK POINT  END OF SOLVER       

       ELAPSED USER TIME (SEC)      =   0.0000    
       ELAPSED SYSTEM TIME (SEC)    =   0.0000    
       ELAPSED TOTAL CPU TIME (SEC) =   0.0000    
       ELAPSED WALLCLOCK TIME (SEC) =          0

               CONVERGENCE CHECKS FOR EQUILIBRIUM ITERATION     1


 AVERAGE HEAT FLUX                   180.       TIME AVG. HEAT FLUX    119.    
 LARGEST RESIDUAL HEAT FLUX        -2.394E-04   AT NODE         73   DOF 11
   INSTANCE: SZYNA2D-1                                                                       
 LARGEST INCREMENT OF TEMP.         -9.19       AT NODE        226   DOF 11
   INSTANCE: SZYNA2D-1                                                                       
 LARGEST CORRECTION TO TEMP.        0.764       AT NODE         73   DOF 11
   INSTANCE: SZYNA2D-1                                                                       
 ESTIMATE OF TEMP.    CORRECTION   -4.487E-06
 HEAT FLUX EQUILIB. ACCEPTED BASED ON SMALL RESIDUAL AND ESTIMATED CORRECTION

 MAXIMUM NON-PRESCRIBED INCREMENT IN TEMPERATURE IS   -9.19    

 ITERATION SUMMARY FOR THE INCREMENT:   1 TOTAL ITERATIONS, OF WHICH
   0 ARE SEVERE DISCONTINUITY ITERATIONS AND  1 ARE EQUILIBRIUM ITERATIONS.

 TIME INCREMENT COMPLETED   1.00    ,  FRACTION OF STEP COMPLETED  2.857E-02
 STEP TIME COMPLETED        34.3    ,  TOTAL TIME COMPLETED         34.3    


  INCREMENT    43 STARTS. ATTEMPT NUMBER  1, TIME INCREMENT   1.00    

  NUMBER OF EQUATIONS =      864     NUMBER OF FLOATING PT. OPERATIONS =  2.67E+05

     CHECK POINT   START OF SOLVER    

     CHECK POINT  END OF SOLVER       

       ELAPSED USER TIME (SEC)      =   0.0000    
       ELAPSED SYSTEM TIME (SEC)    =   0.0000    
       ELAPSED TOTAL CPU TIME (SEC) =   0.0000    
       ELAPSED WALLCLOCK TIME (SEC) =          0

               CONVERGENCE CHECKS FOR EQUILIBRIUM ITERATION     1


 AVERAGE HEAT FLUX                   183.       TIME AVG. HEAT FLUX    121.    
 LARGEST RESIDUAL HEAT FLUX        -1.575E-04   AT NODE         73   DOF 11
   INSTANCE: SZYNA2D-1                                                                       
 LARGEST INCREMENT OF TEMP.         -8.57       AT NODE        226   DOF 11
   INSTANCE: SZYNA2D-1                                                                       
 LARGEST CORRECTION TO TEMP.        0.626       AT NODE         73   DOF 11
   INSTANCE: SZYNA2D-1                                                                       
 ESTIMATE OF TEMP.    CORRECTION   -2.881E-06
 HEAT FLUX EQUILIB. ACCEPTED BASED ON SMALL RESIDUAL AND ESTIMATED CORRECTION

 MAXIMUM NON-PRESCRIBED INCREMENT IN TEMPERATURE IS   -8.57    

 ITERATION SUMMARY FOR THE INCREMENT:   1 TOTAL ITERATIONS, OF WHICH
   0 ARE SEVERE DISCONTINUITY ITERATIONS AND  1 ARE EQUILIBRIUM ITERATIONS.

 TIME INCREMENT COMPLETED   1.00    ,  FRACTION OF STEP COMPLETED  2.941E-02
 STEP TIME COMPLETED        35.3    ,  TOTAL TIME COMPLETED         35.3    


  INCREMENT    44 STARTS. ATTEMPT NUMBER  1, TIME INCREMENT   1.00    

  NUMBER OF EQUATIONS =      864     NUMBER OF FLOATING PT. OPERATIONS =  2.67E+05

     CHECK POINT   START OF SOLVER    

     CHECK POINT  END OF SOLVER       

       ELAPSED USER TIME (SEC)      =   0.0000    
       ELAPSED SYSTEM TIME (SEC)    =   0.0000    
       ELAPSED TOTAL CPU TIME (SEC) =   0.0000    
       ELAPSED WALLCLOCK TIME (SEC) =          0

               CONVERGENCE CHECKS FOR EQUILIBRIUM ITERATION     1


 AVERAGE HEAT FLUX                   185.       TIME AVG. HEAT FLUX    122.    
 LARGEST RESIDUAL HEAT FLUX        -1.089E-04   AT NODE         73   DOF 11
   INSTANCE: SZYNA2D-1                                                                       
 LARGEST INCREMENT OF TEMP.         -8.07       AT NODE        816   DOF 11
   INSTANCE: SZYNA2D-1                                                                       
 LARGEST CORRECTION TO TEMP.        0.525       AT NODE         73   DOF 11
   INSTANCE: SZYNA2D-1                                                                       
 ESTIMATE OF TEMP.    CORRECTION   -1.962E-06
 HEAT FLUX EQUILIB. ACCEPTED BASED ON SMALL RESIDUAL AND ESTIMATED CORRECTION

 MAXIMUM NON-PRESCRIBED INCREMENT IN TEMPERATURE IS   -8.07    

 ITERATION SUMMARY FOR THE INCREMENT:   1 TOTAL ITERATIONS, OF WHICH
   0 ARE SEVERE DISCONTINUITY ITERATIONS AND  1 ARE EQUILIBRIUM ITERATIONS.

 TIME INCREMENT COMPLETED   1.00    ,  FRACTION OF STEP COMPLETED  3.024E-02
 STEP TIME COMPLETED        36.3    ,  TOTAL TIME COMPLETED         36.3    


  INCREMENT    45 STARTS. ATTEMPT NUMBER  1, TIME INCREMENT   1.00    

  NUMBER OF EQUATIONS =      864     NUMBER OF FLOATING PT. OPERATIONS =  2.67E+05

     CHECK POINT   START OF SOLVER    

     CHECK POINT  END OF SOLVER       

       ELAPSED USER TIME (SEC)      =   0.0000    
       ELAPSED SYSTEM TIME (SEC)    =   0.0000    
       ELAPSED TOTAL CPU TIME (SEC) =   0.0000    
       ELAPSED WALLCLOCK TIME (SEC) =          0

               CONVERGENCE CHECKS FOR EQUILIBRIUM ITERATION     1


 AVERAGE HEAT FLUX                   187.       TIME AVG. HEAT FLUX    124.    
 LARGEST RESIDUAL HEAT FLUX        -7.813E-05   AT NODE         73   DOF 11
   INSTANCE: SZYNA2D-1                                                                       
 LARGEST INCREMENT OF TEMP.         -7.65       AT NODE        521   DOF 11
   INSTANCE: SZYNA2D-1                                                                       
 LARGEST CORRECTION TO TEMP.        0.451       AT NODE        348   DOF 11
   INSTANCE: SZYNA2D-1                                                                       
 ESTIMATE OF TEMP.    CORRECTION   -1.369E-06
 HEAT FLUX EQUILIB. ACCEPTED BASED ON SMALL RESIDUAL AND ESTIMATED CORRECTION

 MAXIMUM NON-PRESCRIBED INCREMENT IN TEMPERATURE IS   -7.65    

 ITERATION SUMMARY FOR THE INCREMENT:   1 TOTAL ITERATIONS, OF WHICH
   0 ARE SEVERE DISCONTINUITY ITERATIONS AND  1 ARE EQUILIBRIUM ITERATIONS.

 TIME INCREMENT COMPLETED   1.00    ,  FRACTION OF STEP COMPLETED  3.107E-02
 STEP TIME COMPLETED        37.3    ,  TOTAL TIME COMPLETED         37.3    


  INCREMENT    46 STARTS. ATTEMPT NUMBER  1, TIME INCREMENT   1.00    

  NUMBER OF EQUATIONS =      864     NUMBER OF FLOATING PT. OPERATIONS =  2.67E+05

     CHECK POINT   START OF SOLVER    

     CHECK POINT  END OF SOLVER       

       ELAPSED USER TIME (SEC)      =   0.0000    
       ELAPSED SYSTEM TIME (SEC)    =   0.0000    
       ELAPSED TOTAL CPU TIME (SEC) =   0.0000    
       ELAPSED WALLCLOCK TIME (SEC) =          0

               CONVERGENCE CHECKS FOR EQUILIBRIUM ITERATION     1


 AVERAGE HEAT FLUX                   189.       TIME AVG. HEAT FLUX    125.    
 LARGEST RESIDUAL HEAT FLUX        -5.770E-05   AT NODE         73   DOF 11
   INSTANCE: SZYNA2D-1                                                                       
 LARGEST INCREMENT OF TEMP.         -7.29       AT NODE        485   DOF 11
   INSTANCE: SZYNA2D-1                                                                       
 LARGEST CORRECTION TO TEMP.        0.393       AT NODE        226   DOF 11
   INSTANCE: SZYNA2D-1                                                                       
 ESTIMATE OF TEMP.    CORRECTION   -9.747E-07
 HEAT FLUX EQUILIB. ACCEPTED BASED ON SMALL RESIDUAL AND ESTIMATED CORRECTION

 MAXIMUM NON-PRESCRIBED INCREMENT IN TEMPERATURE IS   -7.29    

 ITERATION SUMMARY FOR THE INCREMENT:   1 TOTAL ITERATIONS, OF WHICH
   0 ARE SEVERE DISCONTINUITY ITERATIONS AND  1 ARE EQUILIBRIUM ITERATIONS.

 TIME INCREMENT COMPLETED   1.00    ,  FRACTION OF STEP COMPLETED  3.191E-02
 STEP TIME COMPLETED        38.3    ,  TOTAL TIME COMPLETED         38.3    


  INCREMENT    47 STARTS. ATTEMPT NUMBER  1, TIME INCREMENT   1.00    

  NUMBER OF EQUATIONS =      864     NUMBER OF FLOATING PT. OPERATIONS =  2.67E+05

     CHECK POINT   START OF SOLVER    

     CHECK POINT  END OF SOLVER       

       ELAPSED USER TIME (SEC)      =   0.0000    
       ELAPSED SYSTEM TIME (SEC)    =   0.0000    
       ELAPSED TOTAL CPU TIME (SEC) =   0.0000    
       ELAPSED WALLCLOCK TIME (SEC) =          0

               CONVERGENCE CHECKS FOR EQUILIBRIUM ITERATION     1


 AVERAGE HEAT FLUX                   190.       TIME AVG. HEAT FLUX    126.    
 LARGEST RESIDUAL HEAT FLUX        -4.359E-05   AT NODE         73   DOF 11
   INSTANCE: SZYNA2D-1                                                                       
 LARGEST INCREMENT OF TEMP.         -6.97       AT NODE        485   DOF 11
   INSTANCE: SZYNA2D-1                                                                       
 LARGEST CORRECTION TO TEMP.        0.346       AT NODE        226   DOF 11
[...]

 ITERATION SUMMARY FOR THE INCREMENT:   1 TOTAL ITERATIONS, OF WHICH
   0 ARE SEVERE DISCONTINUITY ITERATIONS AND  1 ARE EQUILIBRIUM ITERATIONS.

 TIME INCREMENT COMPLETED   1.00    ,  FRACTION OF STEP COMPLETED  0.990    
 STEP TIME COMPLETED       1.188E+03,  TOTAL TIME COMPLETED        1.188E+03


  INCREMENT  1197 STARTS. ATTEMPT NUMBER  1, TIME INCREMENT   1.00    

  NUMBER OF EQUATIONS =      864     NUMBER OF FLOATING PT. OPERATIONS =  2.67E+05

     CHECK POINT   START OF SOLVER    

     CHECK POINT  END OF SOLVER       

       ELAPSED USER TIME (SEC)      =   0.0000    
       ELAPSED SYSTEM TIME (SEC)    =   0.0000    
       ELAPSED TOTAL CPU TIME (SEC) =   0.0000    
       ELAPSED WALLCLOCK TIME (SEC) =          0

               CONVERGENCE CHECKS FOR EQUILIBRIUM ITERATION     1


 AVERAGE HEAT FLUX                   4.93       TIME AVG. HEAT FLUX    55.4    
 LARGEST RESIDUAL HEAT FLUX         3.213E-07   AT NODE        320   DOF 11
   INSTANCE: SZYNA2D-1                                                                       
 LARGEST INCREMENT OF TEMP.        -0.141       AT NODE        557   DOF 11
   INSTANCE: SZYNA2D-1                                                                       
 LARGEST CORRECTION TO TEMP.        1.806E-04   AT NODE        127   DOF 11
   INSTANCE: SZYNA2D-1                                                                       
          THE HEAT FLUX EQUILIBRIUM RESPONSE WAS LINEAR IN THIS INCREMENT

 MAXIMUM NON-PRESCRIBED INCREMENT IN TEMPERATURE IS  -0.141    

 ITERATION SUMMARY FOR THE INCREMENT:   1 TOTAL ITERATIONS, OF WHICH
   0 ARE SEVERE DISCONTINUITY ITERATIONS AND  1 ARE EQUILIBRIUM ITERATIONS.

 TIME INCREMENT COMPLETED   1.00    ,  FRACTION OF STEP COMPLETED  0.991    
 STEP TIME COMPLETED       1.189E+03,  TOTAL TIME COMPLETED        1.189E+03


  INCREMENT  1198 STARTS. ATTEMPT NUMBER  1, TIME INCREMENT   1.00    

  NUMBER OF EQUATIONS =      864     NUMBER OF FLOATING PT. OPERATIONS =  2.67E+05

     CHECK POINT   START OF SOLVER    

     CHECK POINT  END OF SOLVER       

       ELAPSED USER TIME (SEC)      =   0.0000    
       ELAPSED SYSTEM TIME (SEC)    =   0.0000    
       ELAPSED TOTAL CPU TIME (SEC) =   0.0000    
       ELAPSED WALLCLOCK TIME (SEC) =          0

               CONVERGENCE CHECKS FOR EQUILIBRIUM ITERATION     1


 AVERAGE HEAT FLUX                   4.92       TIME AVG. HEAT FLUX    55.4    
 LARGEST RESIDUAL HEAT FLUX         3.295E-07   AT NODE        320   DOF 11
   INSTANCE: SZYNA2D-1                                                                       
 LARGEST INCREMENT OF TEMP.        -0.141       AT NODE        557   DOF 11
   INSTANCE: SZYNA2D-1                                                                       
 LARGEST CORRECTION TO TEMP.        1.803E-04   AT NODE        127   DOF 11
   INSTANCE: SZYNA2D-1                                                                       
          THE HEAT FLUX EQUILIBRIUM RESPONSE WAS LINEAR IN THIS INCREMENT

 MAXIMUM NON-PRESCRIBED INCREMENT IN TEMPERATURE IS  -0.141    

 ITERATION SUMMARY FOR THE INCREMENT:   1 TOTAL ITERATIONS, OF WHICH
   0 ARE SEVERE DISCONTINUITY ITERATIONS AND  1 ARE EQUILIBRIUM ITERATIONS.

 TIME INCREMENT COMPLETED   1.00    ,  FRACTION OF STEP COMPLETED  0.992    
 STEP TIME COMPLETED       1.190E+03,  TOTAL TIME COMPLETED        1.190E+03


  INCREMENT  1199 STARTS. ATTEMPT NUMBER  1, TIME INCREMENT   1.00    

  NUMBER OF EQUATIONS =      864     NUMBER OF FLOATING PT. OPERATIONS =  2.67E+05

     CHECK POINT   START OF SOLVER    

     CHECK POINT  END OF SOLVER       

       ELAPSED USER TIME (SEC)      =   0.0000    
       ELAPSED SYSTEM TIME (SEC)    =   0.0000    
       ELAPSED TOTAL CPU TIME (SEC) =   0.0000    
       ELAPSED WALLCLOCK TIME (SEC) =          0

               CONVERGENCE CHECKS FOR EQUILIBRIUM ITERATION     1


 AVERAGE HEAT FLUX                   4.91       TIME AVG. HEAT FLUX    55.3    
 LARGEST RESIDUAL HEAT FLUX         3.376E-07   AT NODE        320   DOF 11
   INSTANCE: SZYNA2D-1                                                                       
 LARGEST INCREMENT OF TEMP.        -0.141       AT NODE        557   DOF 11
   INSTANCE: SZYNA2D-1                                                                       
 LARGEST CORRECTION TO TEMP.        1.799E-04   AT NODE        127   DOF 11
   INSTANCE: SZYNA2D-1                                                                       
          THE HEAT FLUX EQUILIBRIUM RESPONSE WAS LINEAR IN THIS INCREMENT

 MAXIMUM NON-PRESCRIBED INCREMENT IN TEMPERATURE IS  -0.141    

 ITERATION SUMMARY FOR THE INCREMENT:   1 TOTAL ITERATIONS, OF WHICH
   0 ARE SEVERE DISCONTINUITY ITERATIONS AND  1 ARE EQUILIBRIUM ITERATIONS.

 TIME INCREMENT COMPLETED   1.00    ,  FRACTION OF STEP COMPLETED  0.993    
 STEP TIME COMPLETED       1.191E+03,  TOTAL TIME COMPLETED        1.191E+03


  INCREMENT  1200 STARTS. ATTEMPT NUMBER  1, TIME INCREMENT   1.00    

  NUMBER OF EQUATIONS =      864     NUMBER OF FLOATING PT. OPERATIONS =  2.67E+05

     CHECK POINT   START OF SOLVER    

     CHECK POINT  END OF SOLVER       

       ELAPSED USER TIME (SEC)      =   0.0000    
       ELAPSED SYSTEM TIME (SEC)    =   0.0000    
       ELAPSED TOTAL CPU TIME (SEC) =   0.0000    
       ELAPSED WALLCLOCK TIME (SEC) =          0

               CONVERGENCE CHECKS FOR EQUILIBRIUM ITERATION     1


 AVERAGE HEAT FLUX                   4.90       TIME AVG. HEAT FLUX    55.3    
 LARGEST RESIDUAL HEAT FLUX         3.457E-07   AT NODE        320   DOF 11
   INSTANCE: SZYNA2D-1                                                                       
 LARGEST INCREMENT OF TEMP.        -0.140       AT NODE        557   DOF 11
   INSTANCE: SZYNA2D-1                                                                       
 LARGEST CORRECTION TO TEMP.        1.795E-04   AT NODE        127   DOF 11
   INSTANCE: SZYNA2D-1                                                                       
          THE HEAT FLUX EQUILIBRIUM RESPONSE WAS LINEAR IN THIS INCREMENT

 MAXIMUM NON-PRESCRIBED INCREMENT IN TEMPERATURE IS  -0.140    

 ITERATION SUMMARY FOR THE INCREMENT:   1 TOTAL ITERATIONS, OF WHICH
   0 ARE SEVERE DISCONTINUITY ITERATIONS AND  1 ARE EQUILIBRIUM ITERATIONS.

 TIME INCREMENT COMPLETED   1.00    ,  FRACTION OF STEP COMPLETED  0.994    
 STEP TIME COMPLETED       1.192E+03,  TOTAL TIME COMPLETED        1.192E+03


  INCREMENT  1201 STARTS. ATTEMPT NUMBER  1, TIME INCREMENT   1.00    

  NUMBER OF EQUATIONS =      864     NUMBER OF FLOATING PT. OPERATIONS =  2.67E+05

     CHECK POINT   START OF SOLVER    

     CHECK POINT  END OF SOLVER       

       ELAPSED USER TIME (SEC)      =   0.0000    
       ELAPSED SYSTEM TIME (SEC)    =   0.0000    
       ELAPSED TOTAL CPU TIME (SEC) =   0.0000    
       ELAPSED WALLCLOCK TIME (SEC) =          0

               CONVERGENCE CHECKS FOR EQUILIBRIUM ITERATION     1


 AVERAGE HEAT FLUX                   4.89       TIME AVG. HEAT FLUX    55.3    
 LARGEST RESIDUAL HEAT FLUX         3.537E-07   AT NODE        320   DOF 11
   INSTANCE: SZYNA2D-1                                                                       
 LARGEST INCREMENT OF TEMP.        -0.140       AT NODE        557   DOF 11
   INSTANCE: SZYNA2D-1                                                                       
 LARGEST CORRECTION TO TEMP.        1.791E-04   AT NODE        127   DOF 11
   INSTANCE: SZYNA2D-1                                                                       
          THE HEAT FLUX EQUILIBRIUM RESPONSE WAS LINEAR IN THIS INCREMENT

 MAXIMUM NON-PRESCRIBED INCREMENT IN TEMPERATURE IS  -0.140    

 ITERATION SUMMARY FOR THE INCREMENT:   1 TOTAL ITERATIONS, OF WHICH
   0 ARE SEVERE DISCONTINUITY ITERATIONS AND  1 ARE EQUILIBRIUM ITERATIONS.

 TIME INCREMENT COMPLETED   1.00    ,  FRACTION OF STEP COMPLETED  0.994    
 STEP TIME COMPLETED       1.193E+03,  TOTAL TIME COMPLETED        1.193E+03


  INCREMENT  1202 STARTS. ATTEMPT NUMBER  1, TIME INCREMENT   1.00    

  NUMBER OF EQUATIONS =      864     NUMBER OF FLOATING PT. OPERATIONS =  2.67E+05

     CHECK POINT   START OF SOLVER    

     CHECK POINT  END OF SOLVER       

       ELAPSED USER TIME (SEC)      =   0.0000    
       ELAPSED SYSTEM TIME (SEC)    =   0.0000    
       ELAPSED TOTAL CPU TIME (SEC) =   0.0000    
       ELAPSED WALLCLOCK TIME (SEC) =          0

               CONVERGENCE CHECKS FOR EQUILIBRIUM ITERATION     1


 AVERAGE HEAT FLUX                   4.88       TIME AVG. HEAT FLUX    55.2    
 LARGEST RESIDUAL HEAT FLUX         3.617E-07   AT NODE        320   DOF 11
   INSTANCE: SZYNA2D-1                                                                       
 LARGEST INCREMENT OF TEMP.        -0.140       AT NODE        557   DOF 11
   INSTANCE: SZYNA2D-1                                                                       
 LARGEST CORRECTION TO TEMP.        1.788E-04   AT NODE        127   DOF 11
   INSTANCE: SZYNA2D-1                                                                       
          THE HEAT FLUX EQUILIBRIUM RESPONSE WAS LINEAR IN THIS INCREMENT

 MAXIMUM NON-PRESCRIBED INCREMENT IN TEMPERATURE IS  -0.140    

 ITERATION SUMMARY FOR THE INCREMENT:   1 TOTAL ITERATIONS, OF WHICH
   0 ARE SEVERE DISCONTINUITY ITERATIONS AND  1 ARE EQUILIBRIUM ITERATIONS.

 TIME INCREMENT COMPLETED   1.00    ,  FRACTION OF STEP COMPLETED  0.995    
 STEP TIME COMPLETED       1.194E+03,  TOTAL TIME COMPLETED        1.194E+03


  INCREMENT  1203 STARTS. ATTEMPT NUMBER  1, TIME INCREMENT   1.00    

  NUMBER OF EQUATIONS =      864     NUMBER OF FLOATING PT. OPERATIONS =  2.67E+05

     CHECK POINT   START OF SOLVER    

     CHECK POINT  END OF SOLVER       

       ELAPSED USER TIME (SEC)      =   0.0000    
       ELAPSED SYSTEM TIME (SEC)    =   0.0000    
       ELAPSED TOTAL CPU TIME (SEC) =   0.0000    
       ELAPSED WALLCLOCK TIME (SEC) =          0

               CONVERGENCE CHECKS FOR EQUILIBRIUM ITERATION     1


 AVERAGE HEAT FLUX                   4.87       TIME AVG. HEAT FLUX    55.2    
 LARGEST RESIDUAL HEAT FLUX         3.697E-07   AT NODE        320   DOF 11
   INSTANCE: SZYNA2D-1                                                                       
 LARGEST INCREMENT OF TEMP.        -0.140       AT NODE        557   DOF 11
   INSTANCE: SZYNA2D-1                                                                       
 LARGEST CORRECTION TO TEMP.        1.784E-04   AT NODE        127   DOF 11
   INSTANCE: SZYNA2D-1                                                                       
          THE HEAT FLUX EQUILIBRIUM RESPONSE WAS LINEAR IN THIS INCREMENT

 MAXIMUM NON-PRESCRIBED INCREMENT IN TEMPERATURE IS  -0.140    

 ITERATION SUMMARY FOR THE INCREMENT:   1 TOTAL ITERATIONS, OF WHICH
   0 ARE SEVERE DISCONTINUITY ITERATIONS AND  1 ARE EQUILIBRIUM ITERATIONS.

 TIME INCREMENT COMPLETED   1.00    ,  FRACTION OF STEP COMPLETED  0.996    
 STEP TIME COMPLETED       1.195E+03,  TOTAL TIME COMPLETED        1.195E+03


  INCREMENT  1204 STARTS. ATTEMPT NUMBER  1, TIME INCREMENT   1.00    

  NUMBER OF EQUATIONS =      864     NUMBER OF FLOATING PT. OPERATIONS =  2.67E+05

     CHECK POINT   START OF SOLVER    

     CHECK POINT  END OF SOLVER       

       ELAPSED USER TIME (SEC)      =   0.0000    
       ELAPSED SYSTEM TIME (SEC)    =   0.0000    
       ELAPSED TOTAL CPU TIME (SEC) =   0.0000    
       ELAPSED WALLCLOCK TIME (SEC) =          0

               CONVERGENCE CHECKS FOR EQUILIBRIUM ITERATION     1


 AVERAGE HEAT FLUX                   4.85       TIME AVG. HEAT FLUX    55.1    
 LARGEST RESIDUAL HEAT FLUX         3.775E-07   AT NODE        320   DOF 11
   INSTANCE: SZYNA2D-1                                                                       
 LARGEST INCREMENT OF TEMP.        -0.140       AT NODE        557   DOF 11
   INSTANCE: SZYNA2D-1                                                                       
 LARGEST CORRECTION TO TEMP.        1.780E-04   AT NODE        127   DOF 11
   INSTANCE: SZYNA2D-1                                                                       
          THE HEAT FLUX EQUILIBRIUM RESPONSE WAS LINEAR IN THIS INCREMENT

 MAXIMUM NON-PRESCRIBED INCREMENT IN TEMPERATURE IS  -0.140    

 ITERATION SUMMARY FOR THE INCREMENT:   1 TOTAL ITERATIONS, OF WHICH
   0 ARE SEVERE DISCONTINUITY ITERATIONS AND  1 ARE EQUILIBRIUM ITERATIONS.

 TIME INCREMENT COMPLETED   1.00    ,  FRACTION OF STEP COMPLETED  0.997    
 STEP TIME COMPLETED       1.196E+03,  TOTAL TIME COMPLETED        1.196E+03


  INCREMENT  1205 STARTS. ATTEMPT NUMBER  1, TIME INCREMENT   1.00    

  NUMBER OF EQUATIONS =      864     NUMBER OF FLOATING PT. OPERATIONS =  2.67E+05

     CHECK POINT   START OF SOLVER    

     CHECK POINT  END OF SOLVER       

       ELAPSED USER TIME (SEC)      =   0.0000    
       ELAPSED SYSTEM TIME (SEC)    =   0.0000    
       ELAPSED TOTAL CPU TIME (SEC) =   0.0000    
       ELAPSED WALLCLOCK TIME (SEC) =          0

               CONVERGENCE CHECKS FOR EQUILIBRIUM ITERATION     1


 AVERAGE HEAT FLUX                   4.84       TIME AVG. HEAT FLUX    55.1    
 LARGEST RESIDUAL HEAT FLUX         3.854E-07   AT NODE        320   DOF 11
   INSTANCE: SZYNA2D-1                                                                       
 LARGEST INCREMENT OF TEMP.        -0.139       AT NODE        557   DOF 11
   INSTANCE: SZYNA2D-1                                                                       
 LARGEST CORRECTION TO TEMP.        1.776E-04   AT NODE        127   DOF 11
   INSTANCE: SZYNA2D-1                                                                       
          THE HEAT FLUX EQUILIBRIUM RESPONSE WAS LINEAR IN THIS INCREMENT

 MAXIMUM NON-PRESCRIBED INCREMENT IN TEMPERATURE IS  -0.139    

 ITERATION SUMMARY FOR THE INCREMENT:   1 TOTAL ITERATIONS, OF WHICH
   0 ARE SEVERE DISCONTINUITY ITERATIONS AND  1 ARE EQUILIBRIUM ITERATIONS.

 TIME INCREMENT COMPLETED   1.00    ,  FRACTION OF STEP COMPLETED  0.998    
 STEP TIME COMPLETED       1.197E+03,  TOTAL TIME COMPLETED        1.197E+03


  INCREMENT  1206 STARTS. ATTEMPT NUMBER  1, TIME INCREMENT   1.00    

  NUMBER OF EQUATIONS =      864     NUMBER OF FLOATING PT. OPERATIONS =  2.67E+05

     CHECK POINT   START OF SOLVER    

     CHECK POINT  END OF SOLVER       

       ELAPSED USER TIME (SEC)      =   0.0000    
       ELAPSED SYSTEM TIME (SEC)    =   0.0000    
       ELAPSED TOTAL CPU TIME (SEC) =   0.0000    
       ELAPSED WALLCLOCK TIME (SEC) =          0

               CONVERGENCE CHECKS FOR EQUILIBRIUM ITERATION     1


 AVERAGE HEAT FLUX                   4.83       TIME AVG. HEAT FLUX    55.1    
 LARGEST RESIDUAL HEAT FLUX         3.932E-07   AT NODE        320   DOF 11
   INSTANCE: SZYNA2D-1                                                                       
 LARGEST INCREMENT OF TEMP.        -0.139       AT NODE        557   DOF 11
   INSTANCE: SZYNA2D-1                                                                       
 LARGEST CORRECTION TO TEMP.        1.773E-04   AT NODE        127   DOF 11
   INSTANCE: SZYNA2D-1                                                                       
          THE HEAT FLUX EQUILIBRIUM RESPONSE WAS LINEAR IN THIS INCREMENT

 MAXIMUM NON-PRESCRIBED INCREMENT IN TEMPERATURE IS  -0.139    

 ITERATION SUMMARY FOR THE INCREMENT:   1 TOTAL ITERATIONS, OF WHICH
   0 ARE SEVERE DISCONTINUITY ITERATIONS AND  1 ARE EQUILIBRIUM ITERATIONS.

 TIME INCREMENT COMPLETED   1.00    ,  FRACTION OF STEP COMPLETED  0.999    
 STEP TIME COMPLETED       1.198E+03,  TOTAL TIME COMPLETED        1.198E+03


  INCREMENT  1207 STARTS. ATTEMPT NUMBER  1, TIME INCREMENT   1.00    

  NUMBER OF EQUATIONS =      864     NUMBER OF FLOATING PT. OPERATIONS =  2.67E+05

     CHECK POINT   START OF SOLVER    

     CHECK POINT  END OF SOLVER       

       ELAPSED USER TIME (SEC)      =   0.0000    
       ELAPSED SYSTEM TIME (SEC)    =   0.0000    
       ELAPSED TOTAL CPU TIME (SEC) =   0.0000    
       ELAPSED WALLCLOCK TIME (SEC) =          0

               CONVERGENCE CHECKS FOR EQUILIBRIUM ITERATION     1


 AVERAGE HEAT FLUX                   4.82       TIME AVG. HEAT FLUX    55.0    
 LARGEST RESIDUAL HEAT FLUX         4.009E-07   AT NODE        320   DOF 11
   INSTANCE: SZYNA2D-1                                                                       
 LARGEST INCREMENT OF TEMP.        -0.139       AT NODE        557   DOF 11
   INSTANCE: SZYNA2D-1                                                                       
 LARGEST CORRECTION TO TEMP.        1.769E-04   AT NODE        127   DOF 11
   INSTANCE: SZYNA2D-1                                                                       
          THE HEAT FLUX EQUILIBRIUM RESPONSE WAS LINEAR IN THIS INCREMENT

 MAXIMUM NON-PRESCRIBED INCREMENT IN TEMPERATURE IS  -0.139    

 ITERATION SUMMARY FOR THE INCREMENT:   1 TOTAL ITERATIONS, OF WHICH
   0 ARE SEVERE DISCONTINUITY ITERATIONS AND  1 ARE EQUILIBRIUM ITERATIONS.

 TIME INCREMENT COMPLETED   1.00    ,  FRACTION OF STEP COMPLETED  0.999    
 STEP TIME COMPLETED       1.199E+03,  TOTAL TIME COMPLETED        1.199E+03


  INCREMENT  1208 STARTS. ATTEMPT NUMBER  1, TIME INCREMENT  0.710    

  NUMBER OF EQUATIONS =      864     NUMBER OF FLOATING PT. OPERATIONS =  2.67E+05

     CHECK POINT   START OF SOLVER    

     CHECK POINT  END OF SOLVER       

       ELAPSED USER TIME (SEC)      =  0.10000    
       ELAPSED SYSTEM TIME (SEC)    =   0.0000    
       ELAPSED TOTAL CPU TIME (SEC) =  0.10000    
       ELAPSED WALLCLOCK TIME (SEC) =          0

               CONVERGENCE CHECKS FOR EQUILIBRIUM ITERATION     1


 AVERAGE HEAT FLUX                   4.81       TIME AVG. HEAT FLUX    55.0    
 LARGEST RESIDUAL HEAT FLUX         6.954E-12   AT NODE        321   DOF 11
   INSTANCE: SZYNA2D-1                                                                       
 LARGEST INCREMENT OF TEMP.        -9.867E-02   AT NODE        557   DOF 11
   INSTANCE: SZYNA2D-1                                                                       
 LARGEST CORRECTION TO TEMP.        8.905E-05   AT NODE        127   DOF 11
   INSTANCE: SZYNA2D-1                                                                       
          THE HEAT FLUX EQUILIBRIUM RESPONSE WAS LINEAR IN THIS INCREMENT

 MAXIMUM NON-PRESCRIBED INCREMENT IN TEMPERATURE IS  -9.867E-02

 ITERATION SUMMARY FOR THE INCREMENT:   1 TOTAL ITERATIONS, OF WHICH
   0 ARE SEVERE DISCONTINUITY ITERATIONS AND  1 ARE EQUILIBRIUM ITERATIONS.

 TIME INCREMENT COMPLETED  0.710    ,  FRACTION OF STEP COMPLETED   1.00    
 STEP TIME COMPLETED       1.200E+03,  TOTAL TIME COMPLETED        1.200E+03


          THE ANALYSIS HAS BEEN COMPLETED



     ANALYSIS SUMMARY:
     TOTAL OF       1208  INCREMENTS
                       0  CUTBACKS IN AUTOMATIC INCREMENTATION
                    1208  ITERATIONS INCLUDING CONTACT ITERATIONS IF PRESENT
                    1208  PASSES THROUGH THE EQUATION SOLVER OF WHICH 
                     312  INVOLVE MATRIX DECOMPOSITION, INCLUDING
                       0  DECOMPOSITION(S) OF THE MASS MATRIX
                       1  REORDERING OF EQUATIONS TO MINIMIZE WAVEFRONT
                       0  ADDITIONAL RESIDUAL EVALUATIONS FOR LINE SEARCHES
                       0  ADDITIONAL OPERATOR EVALUATIONS FOR LINE SEARCHES
                       0  WARNING MESSAGES DURING USER INPUT PROCESSING
                       0  WARNING MESSAGES DURING ANALYSIS
                       0  ANALYSIS WARNINGS ARE NUMERICAL PROBLEM MESSAGES
                       0  ANALYSIS WARNINGS ARE NEGATIVE EIGENVALUE MESSAGES
                       0  ERROR MESSAGES



     JOB TIME SUMMARY
       USER TIME (SEC)      =   87.000    
       SYSTEM TIME (SEC)    =   16.200    
       TOTAL CPU TIME (SEC) =   103.20    
       WALLCLOCK TIME (SEC) =        118
