*Heading
** Job name: rail-800 Model name: Model-1
** Generated by: Abaqus/CAE Student Edition 6.14-2
*Preprint, echo=NO, model=NO, history=NO, contact=NO
**
** PARTS
**
*Part, name=Szyna2D
*End Part
**  
**
** ASSEMBLY
**
*Assembly, name=Assembly
**  
*Instance, name=Szyna2D-1, part=Szyna2D
*Node
      1, -0.074414216, 0.000585786416
      2, -0.0730000138,           0.
      3, -0.075000003, 0.00199998589
      4, -0.0660476312,           0.
      5, -0.0590952486,           0.
      6, -0.052142866,           0.
      7, -0.0451904833,           0.
      8, -0.0382381044,           0.
      9, -0.0278095286,           0.
     10, -0.020857146,           0.
     11, -0.0139047643,           0.
     12, -0.00695238216,           0.
     13,           0.,           0.
     14, 0.00695238216,           0.
     15, 0.0139047643,           0.
     16,  0.020857146,           0.
     17, 0.0278095286,           0.
     18, 0.0382381044,           0.
     19, 0.0451904833,           0.
     20,  0.052142866,           0.
** ... 844 like lines cut
*Element, type=DC2D3
 1, 162, 508, 509
 2, 791, 470, 321
 3, 671, 624, 177
 4, 674, 516, 117
 5, 548, 375, 404
 6, 841, 720, 143
 7, 760, 736, 756
 8, 795,  81,  82
 9, 839, 118, 664
10, 547, 112, 328
11, 600, 555, 113
12, 826, 659, 592
13, 599, 153, 567
14, 845, 721, 196
15, 834, 708, 673
16, 856, 773, 728
17, 858, 201, 767
18,   3, 782, 320
19, 320, 784, 106
20, 800, 325, 781
** ... 6 like lines cut
*Element, type=DC2D4
 27, 325,   1,   2, 781
 28, 796, 784, 783, 468
 29, 106, 784, 796, 105
 30, 248, 785, 399,  22
 31, 787,  23,  24,  25
 32, 467, 806, 785, 787
 33, 788,  27,  28, 789
 34, 788, 324,  26,  27
 35, 464, 806, 788, 789
 36, 251, 329, 335,  31
 37, 247, 406, 400,  21
 38, 622, 406, 399, 110
 39,  20, 401, 390, 245
 40, 246, 405, 401,  20
 41, 250, 328, 333,  29
 42,  32, 418, 328, 250
 43, 129, 553, 574, 790
 44, 257, 790, 415, 258
 45, 389, 244,  19, 369
 46, 389, 555, 813, 368
** ... 730 like lines cut
*Nset, nset=cala, generate
   1,  864,    1
*Elset, elset=cala, generate
   1,  776,    1
*Elset, elset=_glowka_S1, internal
 154, 156, 157, 190, 194, 377
*Elset, elset=_glowka_S2, internal
   8, 155, 159, 162, 172, 173, 384, 424, 428, 431, 434, 436, 437, 759
*Elset, elset=_glowka_S4, internal
 137, 138, 139, 143, 158, 163, 165, 168, 170, 171, 191, 192, 206, 326, 380, 381
 382, 383, 385
*Elset, elset=_glowka_S3, internal
 140, 144, 145
*Surface, type=ELEMENT, name=glowka
_glowka_S1, S1
_glowka_S2, S2
_glowka_S4, S4
_glowka_S3, S3
*Elset, elset=_stopka_S2, internal
  27,  31,  33,  45,  47,  49,  57,  59,  66,  67,  80,  81,  82,  83,  86,  87
  88,  89,  92,  93, 103, 105, 119, 122, 123, 130, 131, 180, 196, 198, 207, 236
 257, 259, 363, 364, 365, 367, 368, 369, 370, 371, 372, 374, 389, 390, 396, 398
 409, 416, 439, 440, 443, 446, 448, 450, 454, 455, 467, 499, 752, 757, 758
*Elset, elset=_stopka_S3, internal
  18,  19,  31,  34,  52,  85, 220, 227, 228, 229, 284, 286, 304, 341, 375, 376
 397, 418, 755
*Elset, elset=_stopka_S4, internal
  29,  30,  36,  37,  39,  40,  41,  42,  44,  61,  73,  77,  91,  95,  98, 100
 101, 102, 108, 109, 110, 113, 114, 115, 117, 118, 121, 126, 195, 197, 208, 211
 219, 239, 243, 251, 264, 272, 273, 279, 303, 340, 342, 344, 346, 349, 350, 352
 353, 354, 356, 357, 359, 362, 366, 373, 388, 392, 393, 502, 756
*Elset, elset=_stopka_S1, internal
  51, 129, 221, 223, 231, 308, 358, 360, 361, 391, 399, 406, 410, 423, 465
*Surface, type=ELEMENT, name=stopka
_stopka_S2, S2
_stopka_S3, S3
_stopka_S4, S4
_stopka_S1, S1
** Section: Sekcja-stal
*Solid Section, elset=cala, material=Stal
,
*End Instance
**  
*Nset, nset=coolingPoint, instance=Szyna2D-1
 365,
*Elset, elset=_Calosc_S2, internal, instance=Szyna2D-1
   8,  27,  31,  33,  45,  47,  49,  57,  59,  66,  67,  80,  81,  82,  83,  86
  87,  88,  89,  92,  93, 103, 105, 119, 122, 123, 130, 131, 155, 159, 162, 172
 173, 180, 196, 198, 207, 236, 257, 259, 363, 364, 365, 367, 368, 369, 370, 371
 372, 374, 384, 389, 390, 396, 398, 409, 416, 424, 428, 431, 434, 436, 437, 439
 440, 443, 446, 448, 450, 454, 455, 467, 499, 752, 757, 758, 759
*Elset, elset=_Calosc_S3, internal, instance=Szyna2D-1
  18,  19,  31,  34,  52,  85, 140, 144, 145, 220, 227, 228, 229, 284, 286, 304
 341, 375, 376, 397, 418, 755
*Elset, elset=_Calosc_S4, internal, instance=Szyna2D-1
  29,  30,  36,  37,  39,  40,  41,  42,  44,  61,  73,  77,  91,  95,  98, 100
 101, 102, 108, 109, 110, 113, 114, 115, 117, 118, 121, 126, 137, 138, 139, 143
 158, 163, 165, 168, 170, 171, 191, 192, 195, 197, 206, 208, 211, 219, 239, 243
 251, 264, 272, 273, 279, 303, 326, 340, 342, 344, 346, 349, 350, 352, 353, 354
 356, 357, 359, 362, 366, 373, 380, 381, 382, 383, 385, 388, 392, 393, 502, 756
*Elset, elset=_Calosc_S1, internal, instance=Szyna2D-1
  51, 129, 154, 156, 157, 190, 194, 221, 223, 231, 308, 358, 360, 361, 377, 391
 399, 406, 410, 423, 465
*Surface, type=ELEMENT, name=Calosc
_Calosc_S2, S2
_Calosc_S3, S3
_Calosc_S4, S4
_Calosc_S1, S1
*End Assembly
*Amplitude, name="K= 800"
0.,    828.,
10.,  828.,
13.,  10.,
25.,  10.
28.,  828.,
228.,  828.,
231.,  10.,
260.,  10.
263.,  828.,
266.,  828.,
269.,  10.,
1215.,  10.

** 
** MATERIALS
** 
*Material, name=Stal
*Conductivity
58.,
*Density
7800.,
*Specific Heat
460.,
** 
** PHYSICAL CONSTANTS
** 
*Physical Constants, absolute zero=-273., stefan boltzmann=5.67e-08
** 
** PREDEFINED FIELDS
** 
** Name: Predefined Temperature   Type: Temperature
*Initial Conditions, type=TEMPERATURE
Szyna2D-1.cala, 820.
** ----------------------------------------------------------------
** 
** STEP: Chlodzenie
** 
*Step, name=Chlodzenie, nlgeom=NO, inc=10000
Cooling
*Heat Transfer, end=PERIOD, deltmx=1e+06
0.01, 1200., 0.003, 1., 
** 
** INTERACTIONS
** 
** Interaction: Chlodzenie glowki
*Sfilm, film amplitude="K= 800"
Szyna2D-1.glowka, F, 20., 1.
** Interaction: Chlodzenie w powietrzu
*Sfilm
Szyna2D-1.stopka, F, 20., 10.
** Interaction: Radiacja
*Sradiate
Calosc, R, 20., 0.5
** 
** OUTPUT REQUESTS
** 
*Restart, write, frequency=0
** 
** FIELD OUTPUT: F-Output-1
** 
*Output, field
*Node Output
NT, RFL
*Element Output, directions=YES
HFL, TEMP
*NODE PRINT, NSET=coolingPoint , FREQUENCY=1
NT
*Output, history, frequency=0
*End Step