1

   Abaqus 6.14-2                                  Date 05-maj-2017   Time 18:38:27
   

                                                                                 
 Cooling                                                                         
 STEP    1     INCREMENT     1     STEP TIME    0.00    


                        S T E P       1     T R A N S I E N T   H E A T   T R A N S F E R


          Cooling                                                                         

     AUTOMATIC TIME CONTROL WITH -
          A SUGGESTED INITIAL TIME INCREMENT OF                1.000E-02
          AND A TOTAL TIME PERIOD OF                           1.200E+03
          THE MINIMUM TIME INCREMENT ALLOWED IS                3.000E-03
          THE MAXIMUM TIME INCREMENT ALLOWED IS                 1.00    

     THE SIZE OF THE TIME INCREMENT IS CONTROLLED BY -
          THE TEMPERATURE CHANGE PER INCREMENT NOT EXCEEDING           1.000E+06

 CONVERGENCE TOLERANCE PARAMETERS FOR HEAT FLUX
     CRITERION FOR RESIDUAL HEAT FLUX FOR A NONLINEAR PROBLEM          5.000E-03
     CRITERION FOR TEMP.    CORRECTION IN A NONLINEAR PROBLEM          1.000E-02
     INITIAL VALUE OF TIME AVERAGE HEAT FLUX                           1.000E-02
     AVERAGE HEAT FLUX IS TIME AVERAGE HEAT FLUX
     ALTERNATE CRIT. FOR RESIDUAL HEAT FLUX FOR A NONLINEAR PROBLEM    2.000E-02
     CRITERION FOR ZERO HEAT FLUX RELATIVE TO TIME AVRG. HEAT FLUX     1.000E-05
     CRITERION FOR RESIDUAL HEAT FLUX WHEN THERE IS ZERO FLUX          1.000E-05
     CRITERION FOR TEMP.    CORRECTION WHEN THERE IS ZERO FLUX         1.000E-03
     CRITERION FOR RESIDUAL HEAT FLUX FOR A LINEAR INCREMENT           1.000E-08
     FIELD CONVERSION RATIO                                             1.00    
     CRITERION FOR ZERO HEAT FLUX REL. TO TIME AVRG. MAX. HEAT FLUX    1.000E-05

     VOLUMETRIC STRAIN COMPATIBILITY TOLERANCE FOR HYBRID SOLIDS       1.000E-05
     AXIAL STRAIN COMPATIBILITY TOLERANCE FOR HYBRID BEAMS             1.000E-05
     TRANS. SHEAR STRAIN COMPATIBILITY TOLERANCE FOR HYBRID BEAMS      1.000E-05
     SOFT CONTACT CONSTRAINT COMPATIBILITY TOLERANCE FOR P>P0          5.000E-03
     SOFT CONTACT CONSTRAINT COMPATIBILITY TOLERANCE FOR P=0.0         0.100    
     CONTACT FORCE ERROR TOLERANCE FOR CONVERT SDI=YES                 1.00    
     DISPLACEMENT COMPATIBILITY TOLERANCE FOR DCOUP ELEMENTS           1.000E-05
     ROTATION COMPATIBILITY TOLERANCE FOR DCOUP ELEMENTS               1.000E-05

 TIME INCREMENTATION CONTROL PARAMETERS:
     FIRST EQUILIBRIUM ITERATION FOR CONSECUTIVE DIVERGENCE CHECK              4
     EQUILIBRIUM ITERATION AT WHICH LOG. CONVERGENCE RATE CHECK BEGINS         8
     EQUILIBRIUM ITERATION AFTER WHICH ALTERNATE RESIDUAL IS USED              9
     MAXIMUM EQUILIBRIUM ITERATIONS ALLOWED                                   16
     EQUILIBRIUM ITERATION COUNT FOR CUT-BACK IN NEXT INCREMENT               10
     MAXIMUM EQUILIB. ITERS IN TWO INCREMENTS FOR TIME INCREMENT INCREASE      4
     MAXIMUM ITERATIONS FOR SEVERE DISCONTINUITIES                            12
     MAXIMUM CUT-BACKS ALLOWED IN AN INCREMENT                                 5
     MAXIMUM DISCON. ITERS IN TWO INCREMENTS FOR TIME INCREMENT INCREASE       6
     MAXIMUM CONTACT AUGMENTATIONS FOR *SURFACE BEHAVIOR,AUGMENTED LAGRANGE   50
     CONSECUTIVE INCS MEETING TIME INTEG. TOL. FOR TIME INC. INCREASE          3
     CUT-BACK FACTOR AFTER DIVERGENCE                                 0.2500    
     CUT-BACK FACTOR FOR TOO SLOW CONVERGENCE                         0.5000    
     CUT-BACK FACTOR AFTER TOO MANY EQUILIBRIUM ITERATIONS            0.7500    
     CUT-BACK FACTOR AFTER TOO MANY SEVERE DISCONTINUITY ITERATIONS   0.2500    
     CUT-BACK FACTOR AFTER PROBLEMS IN ELEMENT ASSEMBLY               0.2500    
     INCREASE FACTOR AFTER TWO INCREMENTS THAT CONVERGE QUICKLY        1.500    
     MAX. TIME INCREMENT INCREASE FACTOR ALLOWED                       1.500    
     MAX. TIME INCREMENT INCREASE FACTOR ALLOWED (DYNAMICS)            1.250    
     MAX. TIME INCREMENT INCREASE FACTOR ALLOWED (DIFFUSION)           2.000    
     MINIMUM TIME INCREMENT RATIO FOR EXTRAPOLATION TO OCCUR          0.1000    
     CUT-BACK FACTOR WHEN TIME INTEGRATION ACCURACY TOL. EXCEEDED     0.8500    
     MAX. RATIO OF TIME INTEG. MEASURE TO TOL. FOR TIME INC. INCREASE 0.7500    
     INCREASE FACTOR FOR TIME INCREMENT WHEN POSSIBLE                 0.8000    
     MIN. TIME INC. INCREASE FACTOR IN LINEAR TRANSIENT PROBLEMS      0.9500    
     MAX. RATIO OF TIME INCREMENT TO STABILITY LIMIT                   1.000    
     FRACTION OF STABILITY LIMIT FOR NEW TIME INCREMENT               0.9500    
     TIME INCREMENT INCREASE FACTOR BEFORE A TIME POINT                1.000    
     GLOBAL STABILIZATION CONTROL IS NOT USED

          PRINT OF INCREMENT NUMBER, TIME, ETC., EVERY    1  INCREMENTS

     THE MAXIMUM NUMBER OF INCREMENTS IN THIS STEP IS                   10000

     LINEAR EXTRAPOLATION WILL BE USED

     CHARACTERISTIC ELEMENT LENGTH     3.226E-03

     DETAILS REGARDING ACTUAL SOLUTION WAVEFRONT REQUESTED

     DETAILED OUTPUT OF DIAGNOSTICS TO DATABASE REQUESTED

     PRINT OF INCREMENT NUMBER, TIME, ETC., TO THE MESSAGE FILE EVERY     1  INCREMENTS

     COLLECTING MODEL CONSTRAINT INFORMATION FOR OVERCONSTRAINT CHECKS

     COLLECTING STEP CONSTRAINT INFORMATION FOR OVERCONSTRAINT CHECKS


  INCREMENT     1 STARTS. ATTEMPT NUMBER  1, TIME INCREMENT  1.000E-02

  NUMBER OF EQUATIONS =      864     NUMBER OF FLOATING PT. OPERATIONS =  2.67E+05

     CHECK POINT   START OF SOLVER    

     CHECK POINT  END OF SOLVER       

       ELAPSED USER TIME (SEC)      =   0.0000    
       ELAPSED SYSTEM TIME (SEC)    =  0.10000    
       ELAPSED TOTAL CPU TIME (SEC) =  0.10000    
       ELAPSED WALLCLOCK TIME (SEC) =          0

               CONVERGENCE CHECKS FOR EQUILIBRIUM ITERATION     1


 AVERAGE HEAT FLUX                   42.6       TIME AVG. HEAT FLUX    42.6    
 LARGEST RESIDUAL HEAT FLUX        -9.867E-04   AT NODE         58   DOF 11
   INSTANCE: SZYNA2D-1                                                                       
 LARGEST INCREMENT OF TEMP.         -1.38       AT NODE         81   DOF 11
   INSTANCE: SZYNA2D-1                                                                       
 LARGEST CORRECTION TO TEMP.        -1.38       AT NODE         81   DOF 11
   INSTANCE: SZYNA2D-1                                                                       
 ESTIMATE OF TEMP.    CORRECTION   -7.137E-07
 HEAT FLUX EQUILIB. ACCEPTED BASED ON SMALL RESIDUAL AND ESTIMATED CORRECTION

 MAXIMUM NON-PRESCRIBED INCREMENT IN TEMPERATURE IS   -1.38    

 ITERATION SUMMARY FOR THE INCREMENT:   1 TOTAL ITERATIONS, OF WHICH
   0 ARE SEVERE DISCONTINUITY ITERATIONS AND  1 ARE EQUILIBRIUM ITERATIONS.

 TIME INCREMENT COMPLETED  1.000E-02,  FRACTION OF STEP COMPLETED  8.333E-06
 STEP TIME COMPLETED       1.000E-02,  TOTAL TIME COMPLETED        1.000E-02


  INCREMENT     2 STARTS. ATTEMPT NUMBER  1, TIME INCREMENT  1.000E-02

  NUMBER OF EQUATIONS =      864     NUMBER OF FLOATING PT. OPERATIONS =  2.67E+05

     CHECK POINT   START OF SOLVER    

     CHECK POINT  END OF SOLVER       

       ELAPSED USER TIME (SEC)      =   0.0000    
       ELAPSED SYSTEM TIME (SEC)    =   0.0000    
       ELAPSED TOTAL CPU TIME (SEC) =   0.0000    
       ELAPSED WALLCLOCK TIME (SEC) =          0

               CONVERGENCE CHECKS FOR EQUILIBRIUM ITERATION     1


 AVERAGE HEAT FLUX                   72.2       TIME AVG. HEAT FLUX    57.4    
 LARGEST RESIDUAL HEAT FLUX        -3.091E-06   AT NODE         81   DOF 11
   INSTANCE: SZYNA2D-1                                                                       
 LARGEST INCREMENT OF TEMP.         -1.29       AT NODE         81   DOF 11
   INSTANCE: SZYNA2D-1                                                                       
 LARGEST CORRECTION TO TEMP.        9.252E-02   AT NODE         81   DOF 11
   INSTANCE: SZYNA2D-1                                                                       
 ESTIMATE OF TEMP.    CORRECTION   -3.204E-09
 HEAT FLUX EQUILIB. ACCEPTED BASED ON SMALL RESIDUAL AND ESTIMATED CORRECTION

 MAXIMUM NON-PRESCRIBED INCREMENT IN TEMPERATURE IS   -1.29    

 ITERATION SUMMARY FOR THE INCREMENT:   1 TOTAL ITERATIONS, OF WHICH
   0 ARE SEVERE DISCONTINUITY ITERATIONS AND  1 ARE EQUILIBRIUM ITERATIONS.

 TIME INCREMENT COMPLETED  1.000E-02,  FRACTION OF STEP COMPLETED  1.667E-05
 STEP TIME COMPLETED       2.000E-02,  TOTAL TIME COMPLETED        2.000E-02


  INCREMENT     3 STARTS. ATTEMPT NUMBER  1, TIME INCREMENT  1.000E-02

  NUMBER OF EQUATIONS =      864     NUMBER OF FLOATING PT. OPERATIONS =  2.67E+05

     CHECK POINT   START OF SOLVER    

     CHECK POINT  END OF SOLVER       

       ELAPSED USER TIME (SEC)      =   0.0000    
       ELAPSED SYSTEM TIME (SEC)    =   0.0000    
       ELAPSED TOTAL CPU TIME (SEC) =   0.0000    
       ELAPSED WALLCLOCK TIME (SEC) =          0

               CONVERGENCE CHECKS FOR EQUILIBRIUM ITERATION     1


 AVERAGE HEAT FLUX                   71.3       TIME AVG. HEAT FLUX    62.0    
 LARGEST RESIDUAL HEAT FLUX        -2.515E-06   AT NODE         81   DOF 11
   INSTANCE: SZYNA2D-1                                                                       
 LARGEST INCREMENT OF TEMP.         -1.21       AT NODE         81   DOF 11
   INSTANCE: SZYNA2D-1                                                                       
 LARGEST CORRECTION TO TEMP.        8.355E-02   AT NODE         81   DOF 11
   INSTANCE: SZYNA2D-1                                                                       
 ESTIMATE OF TEMP.    CORRECTION   -2.526E-09
 HEAT FLUX EQUILIB. ACCEPTED BASED ON SMALL RESIDUAL AND ESTIMATED CORRECTION

 MAXIMUM NON-PRESCRIBED INCREMENT IN TEMPERATURE IS   -1.21    
          TIME INCREMENT MAY NOW INCREASE TO    2.000E-02

 ITERATION SUMMARY FOR THE INCREMENT:   1 TOTAL ITERATIONS, OF WHICH
   0 ARE SEVERE DISCONTINUITY ITERATIONS AND  1 ARE EQUILIBRIUM ITERATIONS.

 TIME INCREMENT COMPLETED  1.000E-02,  FRACTION OF STEP COMPLETED  2.500E-05
 STEP TIME COMPLETED       3.000E-02,  TOTAL TIME COMPLETED        3.000E-02


  INCREMENT     4 STARTS. ATTEMPT NUMBER  1, TIME INCREMENT  2.000E-02

  NUMBER OF EQUATIONS =      864     NUMBER OF FLOATING PT. OPERATIONS =  2.67E+05

     CHECK POINT   START OF SOLVER    

     CHECK POINT  END OF SOLVER       

       ELAPSED USER TIME (SEC)      =   0.0000    
       ELAPSED SYSTEM TIME (SEC)    =   0.0000    
       ELAPSED TOTAL CPU TIME (SEC) =   0.0000    
       ELAPSED WALLCLOCK TIME (SEC) =          0

               CONVERGENCE CHECKS FOR EQUILIBRIUM ITERATION     1


 AVERAGE HEAT FLUX                   69.5       TIME AVG. HEAT FLUX    63.9    
 LARGEST RESIDUAL HEAT FLUX        -2.737E-05   AT NODE         81   DOF 11
   INSTANCE: SZYNA2D-1                                                                       
 LARGEST INCREMENT OF TEMP.         -2.14       AT NODE         81   DOF 11
   INSTANCE: SZYNA2D-1                                                                       
 LARGEST CORRECTION TO TEMP.        0.276       AT NODE         81   DOF 11
   INSTANCE: SZYNA2D-1                                                                       
 ESTIMATE OF TEMP.    CORRECTION   -4.871E-08
 HEAT FLUX EQUILIB. ACCEPTED BASED ON SMALL RESIDUAL AND ESTIMATED CORRECTION

 MAXIMUM NON-PRESCRIBED INCREMENT IN TEMPERATURE IS   -2.14    
          TIME INCREMENT MAY NOW INCREASE TO    4.000E-02

 ITERATION SUMMARY FOR THE INCREMENT:   1 TOTAL ITERATIONS, OF WHICH
   0 ARE SEVERE DISCONTINUITY ITERATIONS AND  1 ARE EQUILIBRIUM ITERATIONS.

 TIME INCREMENT COMPLETED  2.000E-02,  FRACTION OF STEP COMPLETED  4.167E-05
 STEP TIME COMPLETED       5.000E-02,  TOTAL TIME COMPLETED        5.000E-02


  INCREMENT     5 STARTS. ATTEMPT NUMBER  1, TIME INCREMENT  4.000E-02

  NUMBER OF EQUATIONS =      864     NUMBER OF FLOATING PT. OPERATIONS =  2.67E+05

     CHECK POINT   START OF SOLVER    

     CHECK POINT  END OF SOLVER       

       ELAPSED USER TIME (SEC)      =   0.0000    
       ELAPSED SYSTEM TIME (SEC)    =   0.0000    
       ELAPSED TOTAL CPU TIME (SEC) =   0.0000    
       ELAPSED WALLCLOCK TIME (SEC) =          0

               CONVERGENCE CHECKS FOR EQUILIBRIUM ITERATION     1


 AVERAGE HEAT FLUX                   66.7       TIME AVG. HEAT FLUX    64.5    
 LARGEST RESIDUAL HEAT FLUX        -2.212E-04   AT NODE         81   DOF 11
   INSTANCE: SZYNA2D-1                                                                       
 LARGEST INCREMENT OF TEMP.         -3.50       AT NODE         81   DOF 11
   INSTANCE: SZYNA2D-1                                                                       
 LARGEST CORRECTION TO TEMP.        0.788       AT NODE         81   DOF 11
   INSTANCE: SZYNA2D-1                                                                       
 ESTIMATE OF TEMP.    CORRECTION   -6.414E-07
 HEAT FLUX EQUILIB. ACCEPTED BASED ON SMALL RESIDUAL AND ESTIMATED CORRECTION

 MAXIMUM NON-PRESCRIBED INCREMENT IN TEMPERATURE IS   -3.50    
          TIME INCREMENT MAY NOW INCREASE TO    8.000E-02

 ITERATION SUMMARY FOR THE INCREMENT:   1 TOTAL ITERATIONS, OF WHICH
   0 ARE SEVERE DISCONTINUITY ITERATIONS AND  1 ARE EQUILIBRIUM ITERATIONS.

 TIME INCREMENT COMPLETED  4.000E-02,  FRACTION OF STEP COMPLETED  7.500E-05
 STEP TIME COMPLETED       9.000E-02,  TOTAL TIME COMPLETED        9.000E-02


  INCREMENT     6 STARTS. ATTEMPT NUMBER  1, TIME INCREMENT  8.000E-02

  NUMBER OF EQUATIONS =      864     NUMBER OF FLOATING PT. OPERATIONS =  2.67E+05

     CHECK POINT   START OF SOLVER    

     CHECK POINT  END OF SOLVER       

       ELAPSED USER TIME (SEC)      =   0.0000    
       ELAPSED SYSTEM TIME (SEC)    =   0.0000    
       ELAPSED TOTAL CPU TIME (SEC) =   0.0000    
       ELAPSED WALLCLOCK TIME (SEC) =          0

               CONVERGENCE CHECKS FOR EQUILIBRIUM ITERATION     1


 AVERAGE HEAT FLUX                   66.7       TIME AVG. HEAT FLUX    64.8    
 LARGEST RESIDUAL HEAT FLUX        -1.437E-03   AT NODE         58   DOF 11
   INSTANCE: SZYNA2D-1                                                                       
 LARGEST INCREMENT OF TEMP.         -5.42       AT NODE         58   DOF 11
   INSTANCE: SZYNA2D-1                                                                       
 LARGEST CORRECTION TO TEMP.         1.82       AT NODE         81   DOF 11
   INSTANCE: SZYNA2D-1                                                                       
 ESTIMATE OF TEMP.    CORRECTION   -6.120E-06
 HEAT FLUX EQUILIB. ACCEPTED BASED ON SMALL RESIDUAL AND ESTIMATED CORRECTION

 MAXIMUM NON-PRESCRIBED INCREMENT IN TEMPERATURE IS   -5.42    
          TIME INCREMENT MAY NOW INCREASE TO    0.160    

 ITERATION SUMMARY FOR THE INCREMENT:   1 TOTAL ITERATIONS, OF WHICH
   0 ARE SEVERE DISCONTINUITY ITERATIONS AND  1 ARE EQUILIBRIUM ITERATIONS.

 TIME INCREMENT COMPLETED  8.000E-02,  FRACTION OF STEP COMPLETED  1.417E-04
 STEP TIME COMPLETED       0.170    ,  TOTAL TIME COMPLETED        0.170    


  INCREMENT     7 STARTS. ATTEMPT NUMBER  1, TIME INCREMENT  0.160    

  NUMBER OF EQUATIONS =      864     NUMBER OF FLOATING PT. OPERATIONS =  2.67E+05

     CHECK POINT   START OF SOLVER    

     CHECK POINT  END OF SOLVER       

       ELAPSED USER TIME (SEC)      =  0.10000    
       ELAPSED SYSTEM TIME (SEC)    =   0.0000    
       ELAPSED TOTAL CPU TIME (SEC) =  0.10000    
       ELAPSED WALLCLOCK TIME (SEC) =          0

               CONVERGENCE CHECKS FOR EQUILIBRIUM ITERATION     1


 AVERAGE HEAT FLUX                   70.5       TIME AVG. HEAT FLUX    65.6    
 LARGEST RESIDUAL HEAT FLUX        -5.944E-03   AT NODE         58   DOF 11
   INSTANCE: SZYNA2D-1                                                                       
 LARGEST INCREMENT OF TEMP.         -7.86       AT NODE         59   DOF 11
   INSTANCE: SZYNA2D-1                                                                       
 LARGEST CORRECTION TO TEMP.         3.27       AT NODE         81   DOF 11
   INSTANCE: SZYNA2D-1                                                                       
 ESTIMATE OF TEMP.    CORRECTION   -3.450E-05
 HEAT FLUX EQUILIB. ACCEPTED BASED ON SMALL RESIDUAL AND ESTIMATED CORRECTION

 MAXIMUM NON-PRESCRIBED INCREMENT IN TEMPERATURE IS   -7.86    
          TIME INCREMENT MAY NOW INCREASE TO    0.320    

 ITERATION SUMMARY FOR THE INCREMENT:   1 TOTAL ITERATIONS, OF WHICH
   0 ARE SEVERE DISCONTINUITY ITERATIONS AND  1 ARE EQUILIBRIUM ITERATIONS.

 TIME INCREMENT COMPLETED  0.160    ,  FRACTION OF STEP COMPLETED  2.750E-04
 STEP TIME COMPLETED       0.330    ,  TOTAL TIME COMPLETED        0.330    


  INCREMENT     8 STARTS. ATTEMPT NUMBER  1, TIME INCREMENT  0.320    

  NUMBER OF EQUATIONS =      864     NUMBER OF FLOATING PT. OPERATIONS =  2.67E+05

     CHECK POINT   START OF SOLVER    

     CHECK POINT  END OF SOLVER       

       ELAPSED USER TIME (SEC)      =   0.0000    
       ELAPSED SYSTEM TIME (SEC)    =   0.0000    
       ELAPSED TOTAL CPU TIME (SEC) =   0.0000    
       ELAPSED WALLCLOCK TIME (SEC) =          0

               CONVERGENCE CHECKS FOR EQUILIBRIUM ITERATION     1


 AVERAGE HEAT FLUX                   79.4       TIME AVG. HEAT FLUX    67.4    
 LARGEST RESIDUAL HEAT FLUX        -1.476E-02   AT NODE        281   DOF 11
   INSTANCE: SZYNA2D-1                                                                       
 LARGEST INCREMENT OF TEMP.         -11.6       AT NODE         73   DOF 11
   INSTANCE: SZYNA2D-1                                                                       
 LARGEST CORRECTION TO TEMP.         5.03       AT NODE         80   DOF 11
   INSTANCE: SZYNA2D-1                                                                       
 ESTIMATE OF TEMP.    CORRECTION   -1.218E-04
 HEAT FLUX EQUILIB. ACCEPTED BASED ON SMALL RESIDUAL AND ESTIMATED CORRECTION

 MAXIMUM NON-PRESCRIBED INCREMENT IN TEMPERATURE IS   -11.6    
          TIME INCREMENT MAY NOW INCREASE TO    0.640    

 ITERATION SUMMARY FOR THE INCREMENT:   1 TOTAL ITERATIONS, OF WHICH
   0 ARE SEVERE DISCONTINUITY ITERATIONS AND  1 ARE EQUILIBRIUM ITERATIONS.

 TIME INCREMENT COMPLETED  0.320    ,  FRACTION OF STEP COMPLETED  5.417E-04
 STEP TIME COMPLETED       0.650    ,  TOTAL TIME COMPLETED        0.650    


  INCREMENT     9 STARTS. ATTEMPT NUMBER  1, TIME INCREMENT  0.640    

  NUMBER OF EQUATIONS =      864     NUMBER OF FLOATING PT. OPERATIONS =  2.67E+05

     CHECK POINT   START OF SOLVER    

     CHECK POINT  END OF SOLVER       

       ELAPSED USER TIME (SEC)      =   0.0000    
       ELAPSED SYSTEM TIME (SEC)    =   0.0000    
       ELAPSED TOTAL CPU TIME (SEC) =   0.0000    
       ELAPSED WALLCLOCK TIME (SEC) =          0

               CONVERGENCE CHECKS FOR EQUILIBRIUM ITERATION     1


 AVERAGE HEAT FLUX                   93.4       TIME AVG. HEAT FLUX    70.3    
 LARGEST RESIDUAL HEAT FLUX        -2.826E-02   AT NODE         80   DOF 11
   INSTANCE: SZYNA2D-1                                                                       
 LARGEST INCREMENT OF TEMP.         -16.6       AT NODE         73   DOF 11
   INSTANCE: SZYNA2D-1                                                                       
 LARGEST CORRECTION TO TEMP.         7.43       AT NODE         80   DOF 11
   INSTANCE: SZYNA2D-1                                                                       
 ESTIMATE OF TEMP.    CORRECTION   -3.657E-04
 HEAT FLUX EQUILIB. ACCEPTED BASED ON SMALL RESIDUAL AND ESTIMATED CORRECTION

 MAXIMUM NON-PRESCRIBED INCREMENT IN TEMPERATURE IS   -16.6    
          TIME INCREMENT MAY NOW INCREASE TO     1.00    

 ITERATION SUMMARY FOR THE INCREMENT:   1 TOTAL ITERATIONS, OF WHICH
   0 ARE SEVERE DISCONTINUITY ITERATIONS AND  1 ARE EQUILIBRIUM ITERATIONS.

 TIME INCREMENT COMPLETED  0.640    ,  FRACTION OF STEP COMPLETED  1.075E-03
 STEP TIME COMPLETED        1.29    ,  TOTAL TIME COMPLETED         1.29    


  INCREMENT    10 STARTS. ATTEMPT NUMBER  1, TIME INCREMENT   1.00    

  NUMBER OF EQUATIONS =      864     NUMBER OF FLOATING PT. OPERATIONS =  2.67E+05

     CHECK POINT   START OF SOLVER    

     CHECK POINT  END OF SOLVER       

       ELAPSED USER TIME (SEC)      =   0.0000    
       ELAPSED SYSTEM TIME (SEC)    =   0.0000    
       ELAPSED TOTAL CPU TIME (SEC) =   0.0000    
       ELAPSED WALLCLOCK TIME (SEC) =          0

               CONVERGENCE CHECKS FOR EQUILIBRIUM ITERATION     1


 AVERAGE HEAT FLUX                   108.       TIME AVG. HEAT FLUX    74.0    
 LARGEST RESIDUAL HEAT FLUX        -2.749E-02   AT NODE         72   DOF 11
   INSTANCE: SZYNA2D-1                                                                       
 LARGEST INCREMENT OF TEMP.         -19.3       AT NODE         73   DOF 11
   INSTANCE: SZYNA2D-1                                                                       
 LARGEST CORRECTION TO TEMP.         6.75       AT NODE         72   DOF 11
   INSTANCE: SZYNA2D-1                                                                       
 ESTIMATE OF TEMP.    CORRECTION   -5.128E-04
 HEAT FLUX EQUILIB. ACCEPTED BASED ON SMALL RESIDUAL AND ESTIMATED CORRECTION

 MAXIMUM NON-PRESCRIBED INCREMENT IN TEMPERATURE IS   -19.3    

 ITERATION SUMMARY FOR THE INCREMENT:   1 TOTAL ITERATIONS, OF WHICH
   0 ARE SEVERE DISCONTINUITY ITERATIONS AND  1 ARE EQUILIBRIUM ITERATIONS.

 TIME INCREMENT COMPLETED   1.00    ,  FRACTION OF STEP COMPLETED  1.908E-03
 STEP TIME COMPLETED        2.29    ,  TOTAL TIME COMPLETED         2.29    


  INCREMENT    11 STARTS. ATTEMPT NUMBER  1, TIME INCREMENT   1.00    

  NUMBER OF EQUATIONS =      864     NUMBER OF FLOATING PT. OPERATIONS =  2.67E+05

     CHECK POINT   START OF SOLVER    

     CHECK POINT  END OF SOLVER       

       ELAPSED USER TIME (SEC)      =   0.0000    
       ELAPSED SYSTEM TIME (SEC)    =   0.0000    
       ELAPSED TOTAL CPU TIME (SEC) =   0.0000    
       ELAPSED WALLCLOCK TIME (SEC) =          0

               CONVERGENCE CHECKS FOR EQUILIBRIUM ITERATION     1


 AVERAGE HEAT FLUX                   118.       TIME AVG. HEAT FLUX    78.0    
 LARGEST RESIDUAL HEAT FLUX        -7.458E-03   AT NODE         73   DOF 11
   INSTANCE: SZYNA2D-1                                                                       
 LARGEST INCREMENT OF TEMP.         -15.7       AT NODE         73   DOF 11
   INSTANCE: SZYNA2D-1                                                                       
 LARGEST CORRECTION TO TEMP.         3.56       AT NODE         73   DOF 11
   INSTANCE: SZYNA2D-1                                                                       
 ESTIMATE OF TEMP.    CORRECTION   -1.730E-04
 HEAT FLUX EQUILIB. ACCEPTED BASED ON SMALL RESIDUAL AND ESTIMATED CORRECTION

 MAXIMUM NON-PRESCRIBED INCREMENT IN TEMPERATURE IS   -15.7    

 ITERATION SUMMARY FOR THE INCREMENT:   1 TOTAL ITERATIONS, OF WHICH
   0 ARE SEVERE DISCONTINUITY ITERATIONS AND  1 ARE EQUILIBRIUM ITERATIONS.

 TIME INCREMENT COMPLETED   1.00    ,  FRACTION OF STEP COMPLETED  2.742E-03
 STEP TIME COMPLETED        3.29    ,  TOTAL TIME COMPLETED         3.29    


  INCREMENT    12 STARTS. ATTEMPT NUMBER  1, TIME INCREMENT   1.00    

  NUMBER OF EQUATIONS =      864     NUMBER OF FLOATING PT. OPERATIONS =  2.67E+05

     CHECK POINT   START OF SOLVER    

     CHECK POINT  END OF SOLVER       

       ELAPSED USER TIME (SEC)      =   0.0000    
       ELAPSED SYSTEM TIME (SEC)    =   0.0000    
       ELAPSED TOTAL CPU TIME (SEC) =   0.0000    
       ELAPSED WALLCLOCK TIME (SEC) =          0

               CONVERGENCE CHECKS FOR EQUILIBRIUM ITERATION     1


 AVERAGE HEAT FLUX                   126.       TIME AVG. HEAT FLUX    81.9    
 LARGEST RESIDUAL HEAT FLUX        -2.831E-03   AT NODE         73   DOF 11
   INSTANCE: SZYNA2D-1                                                                       
 LARGEST INCREMENT OF TEMP.         -13.5       AT NODE         73   DOF 11
   INSTANCE: SZYNA2D-1                                                                       
 LARGEST CORRECTION TO TEMP.         2.22       AT NODE         73   DOF 11
   INSTANCE: SZYNA2D-1                                                                       
 ESTIMATE OF TEMP.    CORRECTION   -7.283E-05
 HEAT FLUX EQUILIB. ACCEPTED BASED ON SMALL RESIDUAL AND ESTIMATED CORRECTION

 MAXIMUM NON-PRESCRIBED INCREMENT IN TEMPERATURE IS   -13.5    

 ITERATION SUMMARY FOR THE INCREMENT:   1 TOTAL ITERATIONS, OF WHICH
   0 ARE SEVERE DISCONTINUITY ITERATIONS AND  1 ARE EQUILIBRIUM ITERATIONS.

 TIME INCREMENT COMPLETED   1.00    ,  FRACTION OF STEP COMPLETED  3.575E-03
 STEP TIME COMPLETED        4.29    ,  TOTAL TIME COMPLETED         4.29    


  INCREMENT    13 STARTS. ATTEMPT NUMBER  1, TIME INCREMENT   1.00    

  NUMBER OF EQUATIONS =      864     NUMBER OF FLOATING PT. OPERATIONS =  2.67E+05

     CHECK POINT   START OF SOLVER    

     CHECK POINT  END OF SOLVER       

       ELAPSED USER TIME (SEC)      =   0.0000    
       ELAPSED SYSTEM TIME (SEC)    =   0.0000    
       ELAPSED TOTAL CPU TIME (SEC) =   0.0000    
       ELAPSED WALLCLOCK TIME (SEC) =          0

               CONVERGENCE CHECKS FOR EQUILIBRIUM ITERATION     1


 AVERAGE HEAT FLUX                   132.       TIME AVG. HEAT FLUX    85.8    
 LARGEST RESIDUAL HEAT FLUX        -1.341E-03   AT NODE         73   DOF 11
   INSTANCE: SZYNA2D-1                                                                       
 LARGEST INCREMENT OF TEMP.         -12.0       AT NODE        348   DOF 11
   INSTANCE: SZYNA2D-1                                                                       
 LARGEST CORRECTION TO TEMP.         1.55       AT NODE         73   DOF 11
   INSTANCE: SZYNA2D-1                                                                       
 ESTIMATE OF TEMP.    CORRECTION   -2.914E-05
 HEAT FLUX EQUILIB. ACCEPTED BASED ON SMALL RESIDUAL AND ESTIMATED CORRECTION

 MAXIMUM NON-PRESCRIBED INCREMENT IN TEMPERATURE IS   -12.0    

 ITERATION SUMMARY FOR THE INCREMENT:   1 TOTAL ITERATIONS, OF WHICH
   0 ARE SEVERE DISCONTINUITY ITERATIONS AND  1 ARE EQUILIBRIUM ITERATIONS.

 TIME INCREMENT COMPLETED   1.00    ,  FRACTION OF STEP COMPLETED  4.408E-03
 STEP TIME COMPLETED        5.29    ,  TOTAL TIME COMPLETED         5.29    


  INCREMENT    14 STARTS. ATTEMPT NUMBER  1, TIME INCREMENT   1.00    

  NUMBER OF EQUATIONS =      864     NUMBER OF FLOATING PT. OPERATIONS =  2.67E+05

     CHECK POINT   START OF SOLVER    

     CHECK POINT  END OF SOLVER       

       ELAPSED USER TIME (SEC)      =   0.0000    
       ELAPSED SYSTEM TIME (SEC)    =   0.0000    
       ELAPSED TOTAL CPU TIME (SEC) =   0.0000    
       ELAPSED WALLCLOCK TIME (SEC) =          0

               CONVERGENCE CHECKS FOR EQUILIBRIUM ITERATION     1


 AVERAGE HEAT FLUX                   137.       TIME AVG. HEAT FLUX    89.4    
 LARGEST RESIDUAL HEAT FLUX        -7.346E-04   AT NODE         73   DOF 11
   INSTANCE: SZYNA2D-1                                                                       
 LARGEST INCREMENT OF TEMP.         -10.9       AT NODE        226   DOF 11
   INSTANCE: SZYNA2D-1                                                                       
 LARGEST CORRECTION TO TEMP.         1.16       AT NODE         73   DOF 11
   INSTANCE: SZYNA2D-1                                                                       
 ESTIMATE OF TEMP.    CORRECTION   -1.482E-05
 HEAT FLUX EQUILIB. ACCEPTED BASED ON SMALL RESIDUAL AND ESTIMATED CORRECTION

 MAXIMUM NON-PRESCRIBED INCREMENT IN TEMPERATURE IS   -10.9    

 ITERATION SUMMARY FOR THE INCREMENT:   1 TOTAL ITERATIONS, OF WHICH
   0 ARE SEVERE DISCONTINUITY ITERATIONS AND  1 ARE EQUILIBRIUM ITERATIONS.

 TIME INCREMENT COMPLETED   1.00    ,  FRACTION OF STEP COMPLETED  5.242E-03
 STEP TIME COMPLETED        6.29    ,  TOTAL TIME COMPLETED         6.29    


  INCREMENT    15 STARTS. ATTEMPT NUMBER  1, TIME INCREMENT   1.00    

  NUMBER OF EQUATIONS =      864     NUMBER OF FLOATING PT. OPERATIONS =  2.67E+05

     CHECK POINT   START OF SOLVER    

     CHECK POINT  END OF SOLVER       

       ELAPSED USER TIME (SEC)      =  0.10000    
       ELAPSED SYSTEM TIME (SEC)    =   0.0000    
       ELAPSED TOTAL CPU TIME (SEC) =  0.10000    
       ELAPSED WALLCLOCK TIME (SEC) =          0

               CONVERGENCE CHECKS FOR EQUILIBRIUM ITERATION     1


 AVERAGE HEAT FLUX                   141.       TIME AVG. HEAT FLUX    92.9    
 LARGEST RESIDUAL HEAT FLUX        -4.442E-04   AT NODE         73   DOF 11
   INSTANCE: SZYNA2D-1                                                                       
 LARGEST INCREMENT OF TEMP.         -10.0       AT NODE        226   DOF 11
   INSTANCE: SZYNA2D-1                                                                       
 LARGEST CORRECTION TO TEMP.        0.909       AT NODE         73   DOF 11
   INSTANCE: SZYNA2D-1                                                                       
 ESTIMATE OF TEMP.    CORRECTION   -8.608E-06
 HEAT FLUX EQUILIB. ACCEPTED BASED ON SMALL RESIDUAL AND ESTIMATED CORRECTION

 MAXIMUM NON-PRESCRIBED INCREMENT IN TEMPERATURE IS   -10.0    

 ITERATION SUMMARY FOR THE INCREMENT:   1 TOTAL ITERATIONS, OF WHICH
   0 ARE SEVERE DISCONTINUITY ITERATIONS AND  1 ARE EQUILIBRIUM ITERATIONS.

 TIME INCREMENT COMPLETED   1.00    ,  FRACTION OF STEP COMPLETED  6.075E-03
 STEP TIME COMPLETED        7.29    ,  TOTAL TIME COMPLETED         7.29    


  INCREMENT    16 STARTS. ATTEMPT NUMBER  1, TIME INCREMENT   1.00    

  NUMBER OF EQUATIONS =      864     NUMBER OF FLOATING PT. OPERATIONS =  2.67E+05

     CHECK POINT   START OF SOLVER    

     CHECK POINT  END OF SOLVER       

       ELAPSED USER TIME (SEC)      =   0.0000    
       ELAPSED SYSTEM TIME (SEC)    =   0.0000    
       ELAPSED TOTAL CPU TIME (SEC) =   0.0000    
       ELAPSED WALLCLOCK TIME (SEC) =          0

               CONVERGENCE CHECKS FOR EQUILIBRIUM ITERATION     1


 AVERAGE HEAT FLUX                   145.       TIME AVG. HEAT FLUX    96.1    
 LARGEST RESIDUAL HEAT FLUX        -2.880E-04   AT NODE         73   DOF 11
   INSTANCE: SZYNA2D-1                                                                       
 LARGEST INCREMENT OF TEMP.         -9.30       AT NODE        226   DOF 11
   INSTANCE: SZYNA2D-1                                                                       
 LARGEST CORRECTION TO TEMP.        0.739       AT NODE         73   DOF 11
   INSTANCE: SZYNA2D-1                                                                       
 ESTIMATE OF TEMP.    CORRECTION   -5.439E-06
 HEAT FLUX EQUILIB. ACCEPTED BASED ON SMALL RESIDUAL AND ESTIMATED CORRECTION

 MAXIMUM NON-PRESCRIBED INCREMENT IN TEMPERATURE IS   -9.30    

 ITERATION SUMMARY FOR THE INCREMENT:   1 TOTAL ITERATIONS, OF WHICH
   0 ARE SEVERE DISCONTINUITY ITERATIONS AND  1 ARE EQUILIBRIUM ITERATIONS.

 TIME INCREMENT COMPLETED   1.00    ,  FRACTION OF STEP COMPLETED  6.908E-03
 STEP TIME COMPLETED        8.29    ,  TOTAL TIME COMPLETED         8.29    


  INCREMENT    17 STARTS. ATTEMPT NUMBER  1, TIME INCREMENT   1.00    

  NUMBER OF EQUATIONS =      864     NUMBER OF FLOATING PT. OPERATIONS =  2.67E+05

     CHECK POINT   START OF SOLVER    

     CHECK POINT  END OF SOLVER       

       ELAPSED USER TIME (SEC)      =   0.0000    
       ELAPSED SYSTEM TIME (SEC)    =   0.0000    
       ELAPSED TOTAL CPU TIME (SEC) =   0.0000    
       ELAPSED WALLCLOCK TIME (SEC) =          0

               CONVERGENCE CHECKS FOR EQUILIBRIUM ITERATION     1


 AVERAGE HEAT FLUX                   148.       TIME AVG. HEAT FLUX    99.1    
 LARGEST RESIDUAL HEAT FLUX        -1.966E-04   AT NODE         73   DOF 11
   INSTANCE: SZYNA2D-1                                                                       
 LARGEST INCREMENT OF TEMP.         -8.70       AT NODE        226   DOF 11
   INSTANCE: SZYNA2D-1                                                                       
 LARGEST CORRECTION TO TEMP.        0.616       AT NODE         73   DOF 11
   INSTANCE: SZYNA2D-1                                                                       
 ESTIMATE OF TEMP.    CORRECTION   -3.645E-06
 HEAT FLUX EQUILIB. ACCEPTED BASED ON SMALL RESIDUAL AND ESTIMATED CORRECTION

 MAXIMUM NON-PRESCRIBED INCREMENT IN TEMPERATURE IS   -8.70    

 ITERATION SUMMARY FOR THE INCREMENT:   1 TOTAL ITERATIONS, OF WHICH
   0 ARE SEVERE DISCONTINUITY ITERATIONS AND  1 ARE EQUILIBRIUM ITERATIONS.

 TIME INCREMENT COMPLETED   1.00    ,  FRACTION OF STEP COMPLETED  7.742E-03
 STEP TIME COMPLETED        9.29    ,  TOTAL TIME COMPLETED         9.29    


  INCREMENT    18 STARTS. ATTEMPT NUMBER  1, TIME INCREMENT   1.00    

  NUMBER OF EQUATIONS =      864     NUMBER OF FLOATING PT. OPERATIONS =  2.67E+05

     CHECK POINT   START OF SOLVER    

     CHECK POINT  END OF SOLVER       

       ELAPSED USER TIME (SEC)      =   0.0000    
       ELAPSED SYSTEM TIME (SEC)    =  0.10000    
       ELAPSED TOTAL CPU TIME (SEC) =  0.10000    
       ELAPSED WALLCLOCK TIME (SEC) =          0

               CONVERGENCE CHECKS FOR EQUILIBRIUM ITERATION     1


 AVERAGE HEAT FLUX                   151.       TIME AVG. HEAT FLUX    102.    
 LARGEST RESIDUAL HEAT FLUX        -1.395E-04   AT NODE         73   DOF 11
   INSTANCE: SZYNA2D-1                                                                       
 LARGEST INCREMENT OF TEMP.         -8.18       AT NODE        226   DOF 11
   INSTANCE: SZYNA2D-1                                                                       
 LARGEST CORRECTION TO TEMP.        0.523       AT NODE         73   DOF 11
   INSTANCE: SZYNA2D-1                                                                       
 ESTIMATE OF TEMP.    CORRECTION   -2.551E-06
 HEAT FLUX EQUILIB. ACCEPTED BASED ON SMALL RESIDUAL AND ESTIMATED CORRECTION

 MAXIMUM NON-PRESCRIBED INCREMENT IN TEMPERATURE IS   -8.18    

 ITERATION SUMMARY FOR THE INCREMENT:   1 TOTAL ITERATIONS, OF WHICH
   0 ARE SEVERE DISCONTINUITY ITERATIONS AND  1 ARE EQUILIBRIUM ITERATIONS.

 TIME INCREMENT COMPLETED   1.00    ,  FRACTION OF STEP COMPLETED  8.575E-03
 STEP TIME COMPLETED        10.3    ,  TOTAL TIME COMPLETED         10.3    


  INCREMENT    19 STARTS. ATTEMPT NUMBER  1, TIME INCREMENT   1.00    

  NUMBER OF EQUATIONS =      864     NUMBER OF FLOATING PT. OPERATIONS =  2.67E+05

     CHECK POINT   START OF SOLVER    

     CHECK POINT  END OF SOLVER       

       ELAPSED USER TIME (SEC)      =   0.0000    
       ELAPSED SYSTEM TIME (SEC)    =   0.0000    
       ELAPSED TOTAL CPU TIME (SEC) =   0.0000    
       ELAPSED WALLCLOCK TIME (SEC) =          0

               CONVERGENCE CHECKS FOR EQUILIBRIUM ITERATION     1


 AVERAGE HEAT FLUX                   153.       TIME AVG. HEAT FLUX    105.    
 LARGEST RESIDUAL HEAT FLUX        -1.020E-04   AT NODE         73   DOF 11
   INSTANCE: SZYNA2D-1                                                                       
 LARGEST INCREMENT OF TEMP.         -7.73       AT NODE        226   DOF 11
   INSTANCE: SZYNA2D-1                                                                       
 LARGEST CORRECTION TO TEMP.        0.451       AT NODE         73   DOF 11
   INSTANCE: SZYNA2D-1                                                                       
 ESTIMATE OF TEMP.    CORRECTION   -1.794E-06
 HEAT FLUX EQUILIB. ACCEPTED BASED ON SMALL RESIDUAL AND ESTIMATED CORRECTION

 MAXIMUM NON-PRESCRIBED INCREMENT IN TEMPERATURE IS   -7.73    

 ITERATION SUMMARY FOR THE INCREMENT:   1 TOTAL ITERATIONS, OF WHICH
   0 ARE SEVERE DISCONTINUITY ITERATIONS AND  1 ARE EQUILIBRIUM ITERATIONS.

 TIME INCREMENT COMPLETED   1.00    ,  FRACTION OF STEP COMPLETED  9.408E-03
 STEP TIME COMPLETED        11.3    ,  TOTAL TIME COMPLETED         11.3    


  INCREMENT    20 STARTS. ATTEMPT NUMBER  1, TIME INCREMENT   1.00    

  NUMBER OF EQUATIONS =      864     NUMBER OF FLOATING PT. OPERATIONS =  2.67E+05

     CHECK POINT   START OF SOLVER    

     CHECK POINT  END OF SOLVER       

       ELAPSED USER TIME (SEC)      =   0.0000    
       ELAPSED SYSTEM TIME (SEC)    =   0.0000    
       ELAPSED TOTAL CPU TIME (SEC) =   0.0000    
       ELAPSED WALLCLOCK TIME (SEC) =          0

               CONVERGENCE CHECKS FOR EQUILIBRIUM ITERATION     1


 AVERAGE HEAT FLUX                   155.       TIME AVG. HEAT FLUX    107.    
 LARGEST RESIDUAL HEAT FLUX        -7.638E-05   AT NODE         73   DOF 11
   INSTANCE: SZYNA2D-1                                                                       
 LARGEST INCREMENT OF TEMP.         -7.35       AT NODE        816   DOF 11
   INSTANCE: SZYNA2D-1                                                                       
 LARGEST CORRECTION TO TEMP.        0.394       AT NODE        226   DOF 11
   INSTANCE: SZYNA2D-1                                                                       
 ESTIMATE OF TEMP.    CORRECTION   -1.301E-06
 HEAT FLUX EQUILIB. ACCEPTED BASED ON SMALL RESIDUAL AND ESTIMATED CORRECTION

 MAXIMUM NON-PRESCRIBED INCREMENT IN TEMPERATURE IS   -7.35    

 ITERATION SUMMARY FOR THE INCREMENT:   1 TOTAL ITERATIONS, OF WHICH
   0 ARE SEVERE DISCONTINUITY ITERATIONS AND  1 ARE EQUILIBRIUM ITERATIONS.

 TIME INCREMENT COMPLETED   1.00    ,  FRACTION OF STEP COMPLETED  1.024E-02
 STEP TIME COMPLETED        12.3    ,  TOTAL TIME COMPLETED         12.3    


  INCREMENT    21 STARTS. ATTEMPT NUMBER  1, TIME INCREMENT   1.00    

  NUMBER OF EQUATIONS =      864     NUMBER OF FLOATING PT. OPERATIONS =  2.67E+05

     CHECK POINT   START OF SOLVER    

     CHECK POINT  END OF SOLVER       

       ELAPSED USER TIME (SEC)      =   0.0000    
       ELAPSED SYSTEM TIME (SEC)    =   0.0000    
       ELAPSED TOTAL CPU TIME (SEC) =   0.0000    
       ELAPSED WALLCLOCK TIME (SEC) =          0

               CONVERGENCE CHECKS FOR EQUILIBRIUM ITERATION     1


 AVERAGE HEAT FLUX                   157.       TIME AVG. HEAT FLUX    110.    
 LARGEST RESIDUAL HEAT FLUX        -5.831E-05   AT NODE         73   DOF 11
   INSTANCE: SZYNA2D-1                                                                       
 LARGEST INCREMENT OF TEMP.         -7.02       AT NODE        816   DOF 11
   INSTANCE: SZYNA2D-1                                                                       
 LARGEST CORRECTION TO TEMP.        0.348       AT NODE        226   DOF 11
   INSTANCE: SZYNA2D-1                                                                       
 ESTIMATE OF TEMP.    CORRECTION   -9.731E-07
 HEAT FLUX EQUILIB. ACCEPTED BASED ON SMALL RESIDUAL AND ESTIMATED CORRECTION

 MAXIMUM NON-PRESCRIBED INCREMENT IN TEMPERATURE IS   -7.02    

 ITERATION SUMMARY FOR THE INCREMENT:   1 TOTAL ITERATIONS, OF WHICH
   0 ARE SEVERE DISCONTINUITY ITERATIONS AND  1 ARE EQUILIBRIUM ITERATIONS.

 TIME INCREMENT COMPLETED   1.00    ,  FRACTION OF STEP COMPLETED  1.107E-02
 STEP TIME COMPLETED        13.3    ,  TOTAL TIME COMPLETED         13.3    


  INCREMENT    22 STARTS. ATTEMPT NUMBER  1, TIME INCREMENT   1.00    

  NUMBER OF EQUATIONS =      864     NUMBER OF FLOATING PT. OPERATIONS =  2.67E+05

     CHECK POINT   START OF SOLVER    

     CHECK POINT  END OF SOLVER       

       ELAPSED USER TIME (SEC)      =   0.0000    
       ELAPSED SYSTEM TIME (SEC)    =   0.0000    
       ELAPSED TOTAL CPU TIME (SEC) =   0.0000    
       ELAPSED WALLCLOCK TIME (SEC) =          0

               CONVERGENCE CHECKS FOR EQUILIBRIUM ITERATION     1


 AVERAGE HEAT FLUX                   159.       TIME AVG. HEAT FLUX    112.    
 LARGEST RESIDUAL HEAT FLUX        -4.524E-05   AT NODE         73   DOF 11
   INSTANCE: SZYNA2D-1                                                                       
 LARGEST INCREMENT OF TEMP.         -6.72       AT NODE        485   DOF 11
   INSTANCE: SZYNA2D-1                                                                       
 LARGEST CORRECTION TO TEMP.        0.310       AT NODE        226   DOF 11
   INSTANCE: SZYNA2D-1                                                                       
 ESTIMATE OF TEMP.    CORRECTION   -7.429E-07
 HEAT FLUX EQUILIB. ACCEPTED BASED ON SMALL RESIDUAL AND ESTIMATED CORRECTION

 MAXIMUM NON-PRESCRIBED INCREMENT IN TEMPERATURE IS   -6.72    

 ITERATION SUMMARY FOR THE INCREMENT:   1 TOTAL ITERATIONS, OF WHICH
   0 ARE SEVERE DISCONTINUITY ITERATIONS AND  1 ARE EQUILIBRIUM ITERATIONS.

 TIME INCREMENT COMPLETED   1.00    ,  FRACTION OF STEP COMPLETED  1.191E-02
 STEP TIME COMPLETED        14.3    ,  TOTAL TIME COMPLETED         14.3    


  INCREMENT    23 STARTS. ATTEMPT NUMBER  1, TIME INCREMENT   1.00    

  NUMBER OF EQUATIONS =      864     NUMBER OF FLOATING PT. OPERATIONS =  2.67E+05

     CHECK POINT   START OF SOLVER    

     CHECK POINT  END OF SOLVER       

       ELAPSED USER TIME (SEC)      =   0.0000    
       ELAPSED SYSTEM TIME (SEC)    =   0.0000    
       ELAPSED TOTAL CPU TIME (SEC) =   0.0000    
       ELAPSED WALLCLOCK TIME (SEC) =          0

               CONVERGENCE CHECKS FOR EQUILIBRIUM ITERATION     1


 AVERAGE HEAT FLUX                   160.       TIME AVG. HEAT FLUX    114.    
 LARGEST RESIDUAL HEAT FLUX        -3.557E-05   AT NODE         73   DOF 11
   INSTANCE: SZYNA2D-1                                                                       
 LARGEST INCREMENT OF TEMP.         -6.47       AT NODE        485   DOF 11
   INSTANCE: SZYNA2D-1                                                                       
 LARGEST CORRECTION TO TEMP.        0.277       AT NODE        226   DOF 11
   INSTANCE: SZYNA2D-1                                                                       
 ESTIMATE OF TEMP.    CORRECTION   -5.768E-07
 HEAT FLUX EQUILIB. ACCEPTED BASED ON SMALL RESIDUAL AND ESTIMATED CORRECTION

 MAXIMUM NON-PRESCRIBED INCREMENT IN TEMPERATURE IS   -6.47    

 ITERATION SUMMARY FOR THE INCREMENT:   1 TOTAL ITERATIONS, OF WHICH
   0 ARE SEVERE DISCONTINUITY ITERATIONS AND  1 ARE EQUILIBRIUM ITERATIONS.

 TIME INCREMENT COMPLETED   1.00    ,  FRACTION OF STEP COMPLETED  1.274E-02
 STEP TIME COMPLETED        15.3    ,  TOTAL TIME COMPLETED         15.3    


  INCREMENT    24 STARTS. ATTEMPT NUMBER  1, TIME INCREMENT   1.00    

  NUMBER OF EQUATIONS =      864     NUMBER OF FLOATING PT. OPERATIONS =  2.67E+05

     CHECK POINT   START OF SOLVER    

     CHECK POINT  END OF SOLVER       

       ELAPSED USER TIME (SEC)      =   0.0000    
       ELAPSED SYSTEM TIME (SEC)    =   0.0000    
       ELAPSED TOTAL CPU TIME (SEC) =   0.0000    
       ELAPSED WALLCLOCK TIME (SEC) =          0

               CONVERGENCE CHECKS FOR EQUILIBRIUM ITERATION     1


 AVERAGE HEAT FLUX                   161.       TIME AVG. HEAT FLUX    116.    
 LARGEST RESIDUAL HEAT FLUX        -2.830E-05   AT NODE         73   DOF 11
   INSTANCE: SZYNA2D-1                                                                       
 LARGEST INCREMENT OF TEMP.         -6.23       AT NODE        485   DOF 11
   INSTANCE: SZYNA2D-1                                                                       
 LARGEST CORRECTION TO TEMP.        0.249       AT NODE        226   DOF 11
   INSTANCE: SZYNA2D-1                                                                       
 ESTIMATE OF TEMP.    CORRECTION   -4.541E-07
 HEAT FLUX EQUILIB. ACCEPTED BASED ON SMALL RESIDUAL AND ESTIMATED CORRECTION

 MAXIMUM NON-PRESCRIBED INCREMENT IN TEMPERATURE IS   -6.23    

 ITERATION SUMMARY FOR THE INCREMENT:   1 TOTAL ITERATIONS, OF WHICH
   0 ARE SEVERE DISCONTINUITY ITERATIONS AND  1 ARE EQUILIBRIUM ITERATIONS.

 TIME INCREMENT COMPLETED   1.00    ,  FRACTION OF STEP COMPLETED  1.357E-02
 STEP TIME COMPLETED        16.3    ,  TOTAL TIME COMPLETED         16.3    


  INCREMENT    25 STARTS. ATTEMPT NUMBER  1, TIME INCREMENT   1.00    

  NUMBER OF EQUATIONS =      864     NUMBER OF FLOATING PT. OPERATIONS =  2.67E+05

     CHECK POINT   START OF SOLVER    

     CHECK POINT  END OF SOLVER       

       ELAPSED USER TIME (SEC)      =   0.0000    
       ELAPSED SYSTEM TIME (SEC)    =   0.0000    
       ELAPSED TOTAL CPU TIME (SEC) =   0.0000    
       ELAPSED WALLCLOCK TIME (SEC) =          0

               CONVERGENCE CHECKS FOR EQUILIBRIUM ITERATION     1


 AVERAGE HEAT FLUX                   163.       TIME AVG. HEAT FLUX    118.    
 LARGEST RESIDUAL HEAT FLUX        -2.275E-05   AT NODE         73   DOF 11
   INSTANCE: SZYNA2D-1                                                                       
 LARGEST INCREMENT OF TEMP.         -6.02       AT NODE        218   DOF 11
   INSTANCE: SZYNA2D-1                                                                       
 LARGEST CORRECTION TO TEMP.        0.225       AT NODE        226   DOF 11
   INSTANCE: SZYNA2D-1                                                                       
 ESTIMATE OF TEMP.    CORRECTION   -3.618E-07
 HEAT FLUX EQUILIB. ACCEPTED BASED ON SMALL RESIDUAL AND ESTIMATED CORRECTION

 MAXIMUM NON-PRESCRIBED INCREMENT IN TEMPERATURE IS   -6.02    

 ITERATION SUMMARY FOR THE INCREMENT:   1 TOTAL ITERATIONS, OF WHICH
   0 ARE SEVERE DISCONTINUITY ITERATIONS AND  1 ARE EQUILIBRIUM ITERATIONS.

 TIME INCREMENT COMPLETED   1.00    ,  FRACTION OF STEP COMPLETED  1.441E-02
 STEP TIME COMPLETED        17.3    ,  TOTAL TIME COMPLETED         17.3    


  INCREMENT    26 STARTS. ATTEMPT NUMBER  1, TIME INCREMENT   1.00    

  NUMBER OF EQUATIONS =      864     NUMBER OF FLOATING PT. OPERATIONS =  2.67E+05

     CHECK POINT   START OF SOLVER    

     CHECK POINT  END OF SOLVER       

       ELAPSED USER TIME (SEC)      =   0.0000    
       ELAPSED SYSTEM TIME (SEC)    =   0.0000    
       ELAPSED TOTAL CPU TIME (SEC) =   0.0000    
       ELAPSED WALLCLOCK TIME (SEC) =          0

               CONVERGENCE CHECKS FOR EQUILIBRIUM ITERATION     1


 AVERAGE HEAT FLUX                   164.       TIME AVG. HEAT FLUX    120.    
 LARGEST RESIDUAL HEAT FLUX        -1.846E-05   AT NODE         73   DOF 11
   INSTANCE: SZYNA2D-1                                                                       
 LARGEST INCREMENT OF TEMP.         -5.84       AT NODE        218   DOF 11
   INSTANCE: SZYNA2D-1                                                                       
 LARGEST CORRECTION TO TEMP.        0.205       AT NODE        226   DOF 11
   INSTANCE: SZYNA2D-1                                                                       
 ESTIMATE OF TEMP.    CORRECTION   -2.912E-07
 HEAT FLUX EQUILIB. ACCEPTED BASED ON SMALL RESIDUAL AND ESTIMATED CORRECTION

 MAXIMUM NON-PRESCRIBED INCREMENT IN TEMPERATURE IS   -5.84    

 ITERATION SUMMARY FOR THE INCREMENT:   1 TOTAL ITERATIONS, OF WHICH
   0 ARE SEVERE DISCONTINUITY ITERATIONS AND  1 ARE EQUILIBRIUM ITERATIONS.

 TIME INCREMENT COMPLETED   1.00    ,  FRACTION OF STEP COMPLETED  1.524E-02
 STEP TIME COMPLETED        18.3    ,  TOTAL TIME COMPLETED         18.3    


  INCREMENT    27 STARTS. ATTEMPT NUMBER  1, TIME INCREMENT   1.00    

  NUMBER OF EQUATIONS =      864     NUMBER OF FLOATING PT. OPERATIONS =  2.67E+05

     CHECK POINT   START OF SOLVER    

     CHECK POINT  END OF SOLVER       

       ELAPSED USER TIME (SEC)      =   0.0000    
       ELAPSED SYSTEM TIME (SEC)    =   0.0000    
       ELAPSED TOTAL CPU TIME (SEC) =   0.0000    
       ELAPSED WALLCLOCK TIME (SEC) =          0

               CONVERGENCE CHECKS FOR EQUILIBRIUM ITERATION     1


 AVERAGE HEAT FLUX                   165.       TIME AVG. HEAT FLUX    121.    
 LARGEST RESIDUAL HEAT FLUX        -1.510E-05   AT NODE         73   DOF 11
   INSTANCE: SZYNA2D-1                                                                       
 LARGEST INCREMENT OF TEMP.         -5.67       AT NODE        218   DOF 11
   INSTANCE: SZYNA2D-1                                                                       
 LARGEST CORRECTION TO TEMP.        0.187       AT NODE        226   DOF 11
   INSTANCE: SZYNA2D-1                                                                       
 ESTIMATE OF TEMP.    CORRECTION   -2.366E-07
 HEAT FLUX EQUILIB. ACCEPTED BASED ON SMALL RESIDUAL AND ESTIMATED CORRECTION

 MAXIMUM NON-PRESCRIBED INCREMENT IN TEMPERATURE IS   -5.67    

 ITERATION SUMMARY FOR THE INCREMENT:   1 TOTAL ITERATIONS, OF WHICH
   0 ARE SEVERE DISCONTINUITY ITERATIONS AND  1 ARE EQUILIBRIUM ITERATIONS.

 TIME INCREMENT COMPLETED   1.00    ,  FRACTION OF STEP COMPLETED  1.607E-02
 STEP TIME COMPLETED        19.3    ,  TOTAL TIME COMPLETED         19.3    


  INCREMENT    28 STARTS. ATTEMPT NUMBER  1, TIME INCREMENT   1.00    

  NUMBER OF EQUATIONS =      864     NUMBER OF FLOATING PT. OPERATIONS =  2.67E+05

     CHECK POINT   START OF SOLVER    

     CHECK POINT  END OF SOLVER       

       ELAPSED USER TIME (SEC)      =   0.0000    
       ELAPSED SYSTEM TIME (SEC)    =   0.0000    
       ELAPSED TOTAL CPU TIME (SEC) =   0.0000    
       ELAPSED WALLCLOCK TIME (SEC) =          0

               CONVERGENCE CHECKS FOR EQUILIBRIUM ITERATION     1


 AVERAGE HEAT FLUX                   166.       TIME AVG. HEAT FLUX    123.    
 LARGEST RESIDUAL HEAT FLUX        -1.246E-05   AT NODE         73   DOF 11
   INSTANCE: SZYNA2D-1                                                                       
 LARGEST INCREMENT OF TEMP.         -5.51       AT NODE        218   DOF 11
   INSTANCE: SZYNA2D-1                                                                       
 LARGEST CORRECTION TO TEMP.        0.171       AT NODE        226   DOF 11
   INSTANCE: SZYNA2D-1                                                                       
 ESTIMATE OF TEMP.    CORRECTION   -1.939E-07
 HEAT FLUX EQUILIB. ACCEPTED BASED ON SMALL RESIDUAL AND ESTIMATED CORRECTION

 MAXIMUM NON-PRESCRIBED INCREMENT IN TEMPERATURE IS   -5.51    

 ITERATION SUMMARY FOR THE INCREMENT:   1 TOTAL ITERATIONS, OF WHICH
   0 ARE SEVERE DISCONTINUITY ITERATIONS AND  1 ARE EQUILIBRIUM ITERATIONS.

 TIME INCREMENT COMPLETED   1.00    ,  FRACTION OF STEP COMPLETED  1.691E-02
 STEP TIME COMPLETED        20.3    ,  TOTAL TIME COMPLETED         20.3    


  INCREMENT    29 STARTS. ATTEMPT NUMBER  1, TIME INCREMENT   1.00    

  NUMBER OF EQUATIONS =      864     NUMBER OF FLOATING PT. OPERATIONS =  2.67E+05

     CHECK POINT   START OF SOLVER    

     CHECK POINT  END OF SOLVER       

       ELAPSED USER TIME (SEC)      =   0.0000    
       ELAPSED SYSTEM TIME (SEC)    =   0.0000    
       ELAPSED TOTAL CPU TIME (SEC) =   0.0000    
       ELAPSED WALLCLOCK TIME (SEC) =          0

               CONVERGENCE CHECKS FOR EQUILIBRIUM ITERATION     1


 AVERAGE HEAT FLUX                   166.       TIME AVG. HEAT FLUX    124.    
 LARGEST RESIDUAL HEAT FLUX        -1.036E-05   AT NODE         73   DOF 11
   INSTANCE: SZYNA2D-1                                                                       
 LARGEST INCREMENT OF TEMP.         -5.37       AT NODE        829   DOF 11
   INSTANCE: SZYNA2D-1                                                                       
 LARGEST CORRECTION TO TEMP.        0.157       AT NODE        226   DOF 11
   INSTANCE: SZYNA2D-1                                                                       
 ESTIMATE OF TEMP.    CORRECTION   -1.602E-07
 HEAT FLUX EQUILIB. ACCEPTED BASED ON SMALL RESIDUAL AND ESTIMATED CORRECTION

 MAXIMUM NON-PRESCRIBED INCREMENT IN TEMPERATURE IS   -5.37    

 ITERATION SUMMARY FOR THE INCREMENT:   1 TOTAL ITERATIONS, OF WHICH
   0 ARE SEVERE DISCONTINUITY ITERATIONS AND  1 ARE EQUILIBRIUM ITERATIONS.

 TIME INCREMENT COMPLETED   1.00    ,  FRACTION OF STEP COMPLETED  1.774E-02
 STEP TIME COMPLETED        21.3    ,  TOTAL TIME COMPLETED         21.3    


  INCREMENT    30 STARTS. ATTEMPT NUMBER  1, TIME INCREMENT   1.00    

  NUMBER OF EQUATIONS =      864     NUMBER OF FLOATING PT. OPERATIONS =  2.67E+05

     CHECK POINT   START OF SOLVER    

     CHECK POINT  END OF SOLVER       

       ELAPSED USER TIME (SEC)      =   0.0000    
       ELAPSED SYSTEM TIME (SEC)    =   0.0000    
       ELAPSED TOTAL CPU TIME (SEC) =   0.0000    
       ELAPSED WALLCLOCK TIME (SEC) =          0

               CONVERGENCE CHECKS FOR EQUILIBRIUM ITERATION     1


 AVERAGE HEAT FLUX                   167.       TIME AVG. HEAT FLUX    126.    
 LARGEST RESIDUAL HEAT FLUX        -8.668E-06   AT NODE         73   DOF 11
   INSTANCE: SZYNA2D-1                                                                       
 LARGEST INCREMENT OF TEMP.         -5.24       AT NODE        829   DOF 11
   INSTANCE: SZYNA2D-1                                                                       
 LARGEST CORRECTION TO TEMP.        0.144       AT NODE        226   DOF 11
   INSTANCE: SZYNA2D-1                                                                       
 ESTIMATE OF TEMP.    CORRECTION   -1.334E-07
 HEAT FLUX EQUILIB. ACCEPTED BASED ON SMALL RESIDUAL AND ESTIMATED CORRECTION

 MAXIMUM NON-PRESCRIBED INCREMENT IN TEMPERATURE IS   -5.24    

 ITERATION SUMMARY FOR THE INCREMENT:   1 TOTAL ITERATIONS, OF WHICH
   0 ARE SEVERE DISCONTINUITY ITERATIONS AND  1 ARE EQUILIBRIUM ITERATIONS.

 TIME INCREMENT COMPLETED   1.00    ,  FRACTION OF STEP COMPLETED  1.857E-02
 STEP TIME COMPLETED        22.3    ,  TOTAL TIME COMPLETED         22.3    


  INCREMENT    31 STARTS. ATTEMPT NUMBER  1, TIME INCREMENT   1.00    

  NUMBER OF EQUATIONS =      864     NUMBER OF FLOATING PT. OPERATIONS =  2.67E+05

     CHECK POINT   START OF SOLVER    

     CHECK POINT  END OF SOLVER       

       ELAPSED USER TIME (SEC)      =   0.0000    
       ELAPSED SYSTEM TIME (SEC)    =   0.0000    
       ELAPSED TOTAL CPU TIME (SEC) =   0.0000    
       ELAPSED WALLCLOCK TIME (SEC) =          0

               CONVERGENCE CHECKS FOR EQUILIBRIUM ITERATION     1


 AVERAGE HEAT FLUX                   168.       TIME AVG. HEAT FLUX    127.    
 LARGEST RESIDUAL HEAT FLUX        -7.305E-06   AT NODE         73   DOF 11
   INSTANCE: SZYNA2D-1                                                                       
 LARGEST INCREMENT OF TEMP.         -5.13       AT NODE        587   DOF 11
   INSTANCE: SZYNA2D-1                                                                       
 LARGEST CORRECTION TO TEMP.        0.133       AT NODE        226   DOF 11
   INSTANCE: SZYNA2D-1                                                                       
 ESTIMATE OF TEMP.    CORRECTION   -1.118E-07
 HEAT FLUX EQUILIB. ACCEPTED BASED ON SMALL RESIDUAL AND ESTIMATED CORRECTION

 MAXIMUM NON-PRESCRIBED INCREMENT IN TEMPERATURE IS   -5.13    

 ITERATION SUMMARY FOR THE INCREMENT:   1 TOTAL ITERATIONS, OF WHICH
   0 ARE SEVERE DISCONTINUITY ITERATIONS AND  1 ARE EQUILIBRIUM ITERATIONS.

 TIME INCREMENT COMPLETED   1.00    ,  FRACTION OF STEP COMPLETED  1.941E-02
 STEP TIME COMPLETED        23.3    ,  TOTAL TIME COMPLETED         23.3    


  INCREMENT    32 STARTS. ATTEMPT NUMBER  1, TIME INCREMENT   1.00    

  NUMBER OF EQUATIONS =      864     NUMBER OF FLOATING PT. OPERATIONS =  2.67E+05

     CHECK POINT   START OF SOLVER    

     CHECK POINT  END OF SOLVER       

       ELAPSED USER TIME (SEC)      =   0.0000    
       ELAPSED SYSTEM TIME (SEC)    =   0.0000    
       ELAPSED TOTAL CPU TIME (SEC) =   0.0000    
       ELAPSED WALLCLOCK TIME (SEC) =          0

               CONVERGENCE CHECKS FOR EQUILIBRIUM ITERATION     1


 AVERAGE HEAT FLUX                   168.       TIME AVG. HEAT FLUX    128.    
 LARGEST RESIDUAL HEAT FLUX        -6.198E-06   AT NODE         73   DOF 11
   INSTANCE: SZYNA2D-1                                                                       
 LARGEST INCREMENT OF TEMP.         -5.03       AT NODE        587   DOF 11
   INSTANCE: SZYNA2D-1                                                                       
 LARGEST CORRECTION TO TEMP.        0.124       AT NODE        226   DOF 11
   INSTANCE: SZYNA2D-1                                                                       
 ESTIMATE OF TEMP.    CORRECTION   -9.437E-08
 HEAT FLUX EQUILIB. ACCEPTED BASED ON SMALL RESIDUAL AND ESTIMATED CORRECTION

 MAXIMUM NON-PRESCRIBED INCREMENT IN TEMPERATURE IS   -5.03    

 ITERATION SUMMARY FOR THE INCREMENT:   1 TOTAL ITERATIONS, OF WHICH
   0 ARE SEVERE DISCONTINUITY ITERATIONS AND  1 ARE EQUILIBRIUM ITERATIONS.

 TIME INCREMENT COMPLETED   1.00    ,  FRACTION OF STEP COMPLETED  2.024E-02
 STEP TIME COMPLETED        24.3    ,  TOTAL TIME COMPLETED         24.3    


  INCREMENT    33 STARTS. ATTEMPT NUMBER  1, TIME INCREMENT   1.00    

  NUMBER OF EQUATIONS =      864     NUMBER OF FLOATING PT. OPERATIONS =  2.67E+05

     CHECK POINT   START OF SOLVER    

     CHECK POINT  END OF SOLVER       

       ELAPSED USER TIME (SEC)      =   0.0000    
       ELAPSED SYSTEM TIME (SEC)    =   0.0000    
       ELAPSED TOTAL CPU TIME (SEC) =   0.0000    
       ELAPSED WALLCLOCK TIME (SEC) =          0

               CONVERGENCE CHECKS FOR EQUILIBRIUM ITERATION     1


 AVERAGE HEAT FLUX                   169.       TIME AVG. HEAT FLUX    130.    
 LARGEST RESIDUAL HEAT FLUX        -5.291E-06   AT NODE         73   DOF 11
   INSTANCE: SZYNA2D-1                                                                       
 LARGEST INCREMENT OF TEMP.         -4.93       AT NODE        587   DOF 11
   INSTANCE: SZYNA2D-1                                                                       
 LARGEST CORRECTION TO TEMP.        0.115       AT NODE        226   DOF 11
   INSTANCE: SZYNA2D-1                                                                       
 ESTIMATE OF TEMP.    CORRECTION   -8.018E-08
 HEAT FLUX EQUILIB. ACCEPTED BASED ON SMALL RESIDUAL AND ESTIMATED CORRECTION

 MAXIMUM NON-PRESCRIBED INCREMENT IN TEMPERATURE IS   -4.93    

 ITERATION SUMMARY FOR THE INCREMENT:   1 TOTAL ITERATIONS, OF WHICH
   0 ARE SEVERE DISCONTINUITY ITERATIONS AND  1 ARE EQUILIBRIUM ITERATIONS.

 TIME INCREMENT COMPLETED   1.00    ,  FRACTION OF STEP COMPLETED  2.107E-02
 STEP TIME COMPLETED        25.3    ,  TOTAL TIME COMPLETED         25.3    


  INCREMENT    34 STARTS. ATTEMPT NUMBER  1, TIME INCREMENT   1.00    

  NUMBER OF EQUATIONS =      864     NUMBER OF FLOATING PT. OPERATIONS =  2.67E+05

     CHECK POINT   START OF SOLVER    

     CHECK POINT  END OF SOLVER       

       ELAPSED USER TIME (SEC)      =   0.0000    
       ELAPSED SYSTEM TIME (SEC)    =  0.10000    
       ELAPSED TOTAL CPU TIME (SEC) =  0.10000    
       ELAPSED WALLCLOCK TIME (SEC) =          0

               CONVERGENCE CHECKS FOR EQUILIBRIUM ITERATION     1


 AVERAGE HEAT FLUX                   169.       TIME AVG. HEAT FLUX    131.    
 LARGEST RESIDUAL HEAT FLUX        -4.545E-06   AT NODE         73   DOF 11
   INSTANCE: SZYNA2D-1                                                                       
 LARGEST INCREMENT OF TEMP.         -4.84       AT NODE        747   DOF 11
   INSTANCE: SZYNA2D-1                                                                       
 LARGEST CORRECTION TO TEMP.        0.107       AT NODE        226   DOF 11
   INSTANCE: SZYNA2D-1                                                                       
 ESTIMATE OF TEMP.    CORRECTION   -6.856E-08
 HEAT FLUX EQUILIB. ACCEPTED BASED ON SMALL RESIDUAL AND ESTIMATED CORRECTION

 MAXIMUM NON-PRESCRIBED INCREMENT IN TEMPERATURE IS   -4.84    

 ITERATION SUMMARY FOR THE INCREMENT:   1 TOTAL ITERATIONS, OF WHICH
   0 ARE SEVERE DISCONTINUITY ITERATIONS AND  1 ARE EQUILIBRIUM ITERATIONS.

 TIME INCREMENT COMPLETED   1.00    ,  FRACTION OF STEP COMPLETED  2.191E-02
 STEP TIME COMPLETED        26.3    ,  TOTAL TIME COMPLETED         26.3    


  INCREMENT    35 STARTS. ATTEMPT NUMBER  1, TIME INCREMENT   1.00    

  NUMBER OF EQUATIONS =      864     NUMBER OF FLOATING PT. OPERATIONS =  2.67E+05

     CHECK POINT   START OF SOLVER    

     CHECK POINT  END OF SOLVER       

       ELAPSED USER TIME (SEC)      =   0.0000    
       ELAPSED SYSTEM TIME (SEC)    =   0.0000    
       ELAPSED TOTAL CPU TIME (SEC) =   0.0000    
       ELAPSED WALLCLOCK TIME (SEC) =          0

               CONVERGENCE CHECKS FOR EQUILIBRIUM ITERATION     1


 AVERAGE HEAT FLUX                   170.       TIME AVG. HEAT FLUX    132.    
 LARGEST RESIDUAL HEAT FLUX        -3.929E-06   AT NODE         72   DOF 11
   INSTANCE: SZYNA2D-1                                                                       
 LARGEST INCREMENT OF TEMP.         -4.76       AT NODE        704   DOF 11
   INSTANCE: SZYNA2D-1                                                                       
 LARGEST CORRECTION TO TEMP.        0.100       AT NODE        226   DOF 11
   INSTANCE: SZYNA2D-1                                                                       
 ESTIMATE OF TEMP.    CORRECTION   -5.901E-08
 HEAT FLUX EQUILIB. ACCEPTED BASED ON SMALL RESIDUAL AND ESTIMATED CORRECTION

 MAXIMUM NON-PRESCRIBED INCREMENT IN TEMPERATURE IS   -4.76    

 ITERATION SUMMARY FOR THE INCREMENT:   1 TOTAL ITERATIONS, OF WHICH
   0 ARE SEVERE DISCONTINUITY ITERATIONS AND  1 ARE EQUILIBRIUM ITERATIONS.

 TIME INCREMENT COMPLETED   1.00    ,  FRACTION OF STEP COMPLETED  2.274E-02
 STEP TIME COMPLETED        27.3    ,  TOTAL TIME COMPLETED         27.3    


  INCREMENT    36 STARTS. ATTEMPT NUMBER  1, TIME INCREMENT   1.00    

  NUMBER OF EQUATIONS =      864     NUMBER OF FLOATING PT. OPERATIONS =  2.67E+05

     CHECK POINT   START OF SOLVER    

     CHECK POINT  END OF SOLVER       

       ELAPSED USER TIME (SEC)      =   0.0000    
       ELAPSED SYSTEM TIME (SEC)    =   0.0000    
       ELAPSED TOTAL CPU TIME (SEC) =   0.0000    
       ELAPSED WALLCLOCK TIME (SEC) =          0

               CONVERGENCE CHECKS FOR EQUILIBRIUM ITERATION     1


 AVERAGE HEAT FLUX                   170.       TIME AVG. HEAT FLUX    133.    
 LARGEST RESIDUAL HEAT FLUX        -3.420E-06   AT NODE         72   DOF 11
   INSTANCE: SZYNA2D-1                                                                       
 LARGEST INCREMENT OF TEMP.         -4.69       AT NODE        704   DOF 11
   INSTANCE: SZYNA2D-1                                                                       
 LARGEST CORRECTION TO TEMP.        9.399E-02   AT NODE        347   DOF 11
   INSTANCE: SZYNA2D-1                                                                       
 ESTIMATE OF TEMP.    CORRECTION   -5.120E-08
 HEAT FLUX EQUILIB. ACCEPTED BASED ON SMALL RESIDUAL AND ESTIMATED CORRECTION

 MAXIMUM NON-PRESCRIBED INCREMENT IN TEMPERATURE IS   -4.69    

 ITERATION SUMMARY FOR THE INCREMENT:   1 TOTAL ITERATIONS, OF WHICH
   0 ARE SEVERE DISCONTINUITY ITERATIONS AND  1 ARE EQUILIBRIUM ITERATIONS.

 TIME INCREMENT COMPLETED   1.00    ,  FRACTION OF STEP COMPLETED  2.357E-02
 STEP TIME COMPLETED        28.3    ,  TOTAL TIME COMPLETED         28.3    


  INCREMENT    37 STARTS. ATTEMPT NUMBER  1, TIME INCREMENT   1.00    

  NUMBER OF EQUATIONS =      864     NUMBER OF FLOATING PT. OPERATIONS =  2.67E+05

     CHECK POINT   START OF SOLVER    

     CHECK POINT  END OF SOLVER       

       ELAPSED USER TIME (SEC)      =   0.0000    
       ELAPSED SYSTEM TIME (SEC)    =   0.0000    
       ELAPSED TOTAL CPU TIME (SEC) =   0.0000    
       ELAPSED WALLCLOCK TIME (SEC) =          0

               CONVERGENCE CHECKS FOR EQUILIBRIUM ITERATION     1


 AVERAGE HEAT FLUX                   170.       TIME AVG. HEAT FLUX    134.    
 LARGEST RESIDUAL HEAT FLUX        -2.994E-06   AT NODE         72   DOF 11
   INSTANCE: SZYNA2D-1                                                                       
 LARGEST INCREMENT OF TEMP.         -4.62       AT NODE        213   DOF 11
   INSTANCE: SZYNA2D-1                                                                       
 LARGEST CORRECTION TO TEMP.        8.845E-02   AT NODE        347   DOF 11
   INSTANCE: SZYNA2D-1                                                                       
 ESTIMATE OF TEMP.    CORRECTION   -4.469E-08
 HEAT FLUX EQUILIB. ACCEPTED BASED ON SMALL RESIDUAL AND ESTIMATED CORRECTION

 MAXIMUM NON-PRESCRIBED INCREMENT IN TEMPERATURE IS   -4.62    

 ITERATION SUMMARY FOR THE INCREMENT:   1 TOTAL ITERATIONS, OF WHICH
   0 ARE SEVERE DISCONTINUITY ITERATIONS AND  1 ARE EQUILIBRIUM ITERATIONS.

 TIME INCREMENT COMPLETED   1.00    ,  FRACTION OF STEP COMPLETED  2.441E-02
 STEP TIME COMPLETED        29.3    ,  TOTAL TIME COMPLETED         29.3    


  INCREMENT    38 STARTS. ATTEMPT NUMBER  1, TIME INCREMENT   1.00    

  NUMBER OF EQUATIONS =      864     NUMBER OF FLOATING PT. OPERATIONS =  2.67E+05

     CHECK POINT   START OF SOLVER    

     CHECK POINT  END OF SOLVER       

       ELAPSED USER TIME (SEC)      =   0.0000    
       ELAPSED SYSTEM TIME (SEC)    =   0.0000    
       ELAPSED TOTAL CPU TIME (SEC) =   0.0000    
       ELAPSED WALLCLOCK TIME (SEC) =          0

               CONVERGENCE CHECKS FOR EQUILIBRIUM ITERATION     1


 AVERAGE HEAT FLUX                   170.       TIME AVG. HEAT FLUX    135.    
 LARGEST RESIDUAL HEAT FLUX        -2.634E-06   AT NODE         72   DOF 11
   INSTANCE: SZYNA2D-1                                                                       
 LARGEST INCREMENT OF TEMP.         -4.56       AT NODE        695   DOF 11
   INSTANCE: SZYNA2D-1                                                                       
 LARGEST CORRECTION TO TEMP.        8.346E-02   AT NODE        816   DOF 11
   INSTANCE: SZYNA2D-1                                                                       
 ESTIMATE OF TEMP.    CORRECTION   -3.922E-08
 HEAT FLUX EQUILIB. ACCEPTED BASED ON SMALL RESIDUAL AND ESTIMATED CORRECTION

 MAXIMUM NON-PRESCRIBED INCREMENT IN TEMPERATURE IS   -4.56    

 ITERATION SUMMARY FOR THE INCREMENT:   1 TOTAL ITERATIONS, OF WHICH
   0 ARE SEVERE DISCONTINUITY ITERATIONS AND  1 ARE EQUILIBRIUM ITERATIONS.

 TIME INCREMENT COMPLETED   1.00    ,  FRACTION OF STEP COMPLETED  2.524E-02
 STEP TIME COMPLETED        30.3    ,  TOTAL TIME COMPLETED         30.3    


  INCREMENT    39 STARTS. ATTEMPT NUMBER  1, TIME INCREMENT   1.00    

  NUMBER OF EQUATIONS =      864     NUMBER OF FLOATING PT. OPERATIONS =  2.67E+05

     CHECK POINT   START OF SOLVER    

     CHECK POINT  END OF SOLVER       

       ELAPSED USER TIME (SEC)      =   0.0000    
       ELAPSED SYSTEM TIME (SEC)    =   0.0000    
       ELAPSED TOTAL CPU TIME (SEC) =   0.0000    
       ELAPSED WALLCLOCK TIME (SEC) =          0

               CONVERGENCE CHECKS FOR EQUILIBRIUM ITERATION     1


 AVERAGE HEAT FLUX                   171.       TIME AVG. HEAT FLUX    136.    
 LARGEST RESIDUAL HEAT FLUX        -2.328E-06   AT NODE         62   DOF 11
   INSTANCE: SZYNA2D-1                                                                       
 LARGEST INCREMENT OF TEMP.         -4.50       AT NODE        212   DOF 11
   INSTANCE: SZYNA2D-1                                                                       
 LARGEST CORRECTION TO TEMP.        7.899E-02   AT NODE        816   DOF 11
   INSTANCE: SZYNA2D-1                                                                       
 ESTIMATE OF TEMP.    CORRECTION   -3.462E-08
 HEAT FLUX EQUILIB. ACCEPTED BASED ON SMALL RESIDUAL AND ESTIMATED CORRECTION

 MAXIMUM NON-PRESCRIBED INCREMENT IN TEMPERATURE IS   -4.50    

 ITERATION SUMMARY FOR THE INCREMENT:   1 TOTAL ITERATIONS, OF WHICH
   0 ARE SEVERE DISCONTINUITY ITERATIONS AND  1 ARE EQUILIBRIUM ITERATIONS.

 TIME INCREMENT COMPLETED   1.00    ,  FRACTION OF STEP COMPLETED  2.608E-02
 STEP TIME COMPLETED        31.3    ,  TOTAL TIME COMPLETED         31.3    


  INCREMENT    40 STARTS. ATTEMPT NUMBER  1, TIME INCREMENT   1.00    

  NUMBER OF EQUATIONS =      864     NUMBER OF FLOATING PT. OPERATIONS =  2.67E+05

     CHECK POINT   START OF SOLVER    

     CHECK POINT  END OF SOLVER       

       ELAPSED USER TIME (SEC)      =   0.0000    
       ELAPSED SYSTEM TIME (SEC)    =   0.0000    
       ELAPSED TOTAL CPU TIME (SEC) =   0.0000    
       ELAPSED WALLCLOCK TIME (SEC) =          0

               CONVERGENCE CHECKS FOR EQUILIBRIUM ITERATION     1


 AVERAGE HEAT FLUX                   171.       TIME AVG. HEAT FLUX    137.    
 LARGEST RESIDUAL HEAT FLUX        -2.083E-06   AT NODE         62   DOF 11
   INSTANCE: SZYNA2D-1                                                                       
 LARGEST INCREMENT OF TEMP.         -4.45       AT NODE        696   DOF 11
   INSTANCE: SZYNA2D-1                                                                       
 LARGEST CORRECTION TO TEMP.        7.492E-02   AT NODE        816   DOF 11
   INSTANCE: SZYNA2D-1                                                                       
 ESTIMATE OF TEMP.    CORRECTION   -3.092E-08
 HEAT FLUX EQUILIB. ACCEPTED BASED ON SMALL RESIDUAL AND ESTIMATED CORRECTION

 MAXIMUM NON-PRESCRIBED INCREMENT IN TEMPERATURE IS   -4.45    

 ITERATION SUMMARY FOR THE INCREMENT:   1 TOTAL ITERATIONS, OF WHICH
   0 ARE SEVERE DISCONTINUITY ITERATIONS AND  1 ARE EQUILIBRIUM ITERATIONS.

 TIME INCREMENT COMPLETED   1.00    ,  FRACTION OF STEP COMPLETED  2.691E-02
 STEP TIME COMPLETED        32.3    ,  TOTAL TIME COMPLETED         32.3    


  INCREMENT    41 STARTS. ATTEMPT NUMBER  1, TIME INCREMENT   1.00    

  NUMBER OF EQUATIONS =      864     NUMBER OF FLOATING PT. OPERATIONS =  2.67E+05

     CHECK POINT   START OF SOLVER    

     CHECK POINT  END OF SOLVER       

       ELAPSED USER TIME (SEC)      =   0.0000    
       ELAPSED SYSTEM TIME (SEC)    =   0.0000    
       ELAPSED TOTAL CPU TIME (SEC) =   0.0000    
       ELAPSED WALLCLOCK TIME (SEC) =          0

               CONVERGENCE CHECKS FOR EQUILIBRIUM ITERATION     1


 AVERAGE HEAT FLUX                   171.       TIME AVG. HEAT FLUX    137.    
 LARGEST RESIDUAL HEAT FLUX        -1.870E-06   AT NODE         62   DOF 11
   INSTANCE: SZYNA2D-1                                                                       
 LARGEST INCREMENT OF TEMP.         -4.39       AT NODE        696   DOF 11
   INSTANCE: SZYNA2D-1                                                                       
 LARGEST CORRECTION TO TEMP.        7.122E-02   AT NODE        816   DOF 11
   INSTANCE: SZYNA2D-1                                                                       
 ESTIMATE OF TEMP.    CORRECTION   -2.773E-08
 HEAT FLUX EQUILIB. ACCEPTED BASED ON SMALL RESIDUAL AND ESTIMATED CORRECTION

 MAXIMUM NON-PRESCRIBED INCREMENT IN TEMPERATURE IS   -4.39    

 ITERATION SUMMARY FOR THE INCREMENT:   1 TOTAL ITERATIONS, OF WHICH
   0 ARE SEVERE DISCONTINUITY ITERATIONS AND  1 ARE EQUILIBRIUM ITERATIONS.

 TIME INCREMENT COMPLETED   1.00    ,  FRACTION OF STEP COMPLETED  2.774E-02
 STEP TIME COMPLETED        33.3    ,  TOTAL TIME COMPLETED         33.3    


  INCREMENT    42 STARTS. ATTEMPT NUMBER  1, TIME INCREMENT   1.00    

  NUMBER OF EQUATIONS =      864     NUMBER OF FLOATING PT. OPERATIONS =  2.67E+05

     CHECK POINT   START OF SOLVER    

     CHECK POINT  END OF SOLVER       

       ELAPSED USER TIME (SEC)      =   0.0000    
       ELAPSED SYSTEM TIME (SEC)    =   0.0000    
       ELAPSED TOTAL CPU TIME (SEC) =   0.0000    
       ELAPSED WALLCLOCK TIME (SEC) =          0

               CONVERGENCE CHECKS FOR EQUILIBRIUM ITERATION     1


 AVERAGE HEAT FLUX                   171.       TIME AVG. HEAT FLUX    138.    
 LARGEST RESIDUAL HEAT FLUX        -1.689E-06   AT NODE        284   DOF 11
   INSTANCE: SZYNA2D-1                                                                       
 LARGEST INCREMENT OF TEMP.         -4.34       AT NODE        696   DOF 11
   INSTANCE: SZYNA2D-1                                                                       
 LARGEST CORRECTION TO TEMP.        6.783E-02   AT NODE        816   DOF 11
   INSTANCE: SZYNA2D-1                                                                       
 ESTIMATE OF TEMP.    CORRECTION   -2.502E-08
 HEAT FLUX EQUILIB. ACCEPTED BASED ON SMALL RESIDUAL AND ESTIMATED CORRECTION

 MAXIMUM NON-PRESCRIBED INCREMENT IN TEMPERATURE IS   -4.34    

 ITERATION SUMMARY FOR THE INCREMENT:   1 TOTAL ITERATIONS, OF WHICH
   0 ARE SEVERE DISCONTINUITY ITERATIONS AND  1 ARE EQUILIBRIUM ITERATIONS.

 TIME INCREMENT COMPLETED   1.00    ,  FRACTION OF STEP COMPLETED  2.857E-02
 STEP TIME COMPLETED        34.3    ,  TOTAL TIME COMPLETED         34.3    


  INCREMENT    43 STARTS. ATTEMPT NUMBER  1, TIME INCREMENT   1.00    

  NUMBER OF EQUATIONS =      864     NUMBER OF FLOATING PT. OPERATIONS =  2.67E+05

     CHECK POINT   START OF SOLVER    

     CHECK POINT  END OF SOLVER       

       ELAPSED USER TIME (SEC)      =   0.0000    
       ELAPSED SYSTEM TIME (SEC)    =   0.0000    
       ELAPSED TOTAL CPU TIME (SEC) =   0.0000    
       ELAPSED WALLCLOCK TIME (SEC) =          0

               CONVERGENCE CHECKS FOR EQUILIBRIUM ITERATION     1


 AVERAGE HEAT FLUX                   171.       TIME AVG. HEAT FLUX    139.    
 LARGEST RESIDUAL HEAT FLUX        -1.535E-06   AT NODE        284   DOF 11
   INSTANCE: SZYNA2D-1                                                                       
 LARGEST INCREMENT OF TEMP.         -4.29       AT NODE        696   DOF 11
   INSTANCE: SZYNA2D-1                                                                       
 LARGEST CORRECTION TO TEMP.        6.474E-02   AT NODE        485   DOF 11
   INSTANCE: SZYNA2D-1                                                                       
 ESTIMATE OF TEMP.    CORRECTION   -2.273E-08
 HEAT FLUX EQUILIB. ACCEPTED BASED ON SMALL RESIDUAL AND ESTIMATED CORRECTION

 MAXIMUM NON-PRESCRIBED INCREMENT IN TEMPERATURE IS   -4.29    

 ITERATION SUMMARY FOR THE INCREMENT:   1 TOTAL ITERATIONS, OF WHICH
   0 ARE SEVERE DISCONTINUITY ITERATIONS AND  1 ARE EQUILIBRIUM ITERATIONS.

 TIME INCREMENT COMPLETED   1.00    ,  FRACTION OF STEP COMPLETED  2.941E-02
 STEP TIME COMPLETED        35.3    ,  TOTAL TIME COMPLETED         35.3    


  INCREMENT    44 STARTS. ATTEMPT NUMBER  1, TIME INCREMENT   1.00    

  NUMBER OF EQUATIONS =      864     NUMBER OF FLOATING PT. OPERATIONS =  2.67E+05

     CHECK POINT   START OF SOLVER    

     CHECK POINT  END OF SOLVER       

       ELAPSED USER TIME (SEC)      =   0.0000    
       ELAPSED SYSTEM TIME (SEC)    =   0.0000    
       ELAPSED TOTAL CPU TIME (SEC) =   0.0000    
       ELAPSED WALLCLOCK TIME (SEC) =          0

               CONVERGENCE CHECKS FOR EQUILIBRIUM ITERATION     1


 AVERAGE HEAT FLUX                   171.       TIME AVG. HEAT FLUX    140.    
 LARGEST RESIDUAL HEAT FLUX        -1.400E-06   AT NODE        284   DOF 11
   INSTANCE: SZYNA2D-1                                                                       
 LARGEST INCREMENT OF TEMP.         -4.24       AT NODE        732   DOF 11
   INSTANCE: SZYNA2D-1                                                                       
 LARGEST CORRECTION TO TEMP.        6.199E-02   AT NODE        225   DOF 11
   INSTANCE: SZYNA2D-1                                                                       
 ESTIMATE OF TEMP.    CORRECTION   -2.074E-08
 HEAT FLUX EQUILIB. ACCEPTED BASED ON SMALL RESIDUAL AND ESTIMATED CORRECTION

 MAXIMUM NON-PRESCRIBED INCREMENT IN TEMPERATURE IS   -4.24    

 ITERATION SUMMARY FOR THE INCREMENT:   1 TOTAL ITERATIONS, OF WHICH
   0 ARE SEVERE DISCONTINUITY ITERATIONS AND  1 ARE EQUILIBRIUM ITERATIONS.

 TIME INCREMENT COMPLETED   1.00    ,  FRACTION OF STEP COMPLETED  3.024E-02
 STEP TIME COMPLETED        36.3    ,  TOTAL TIME COMPLETED         36.3    


  INCREMENT    45 STARTS. ATTEMPT NUMBER  1, TIME INCREMENT   1.00    

  NUMBER OF EQUATIONS =      864     NUMBER OF FLOATING PT. OPERATIONS =  2.67E+05

     CHECK POINT   START OF SOLVER    

     CHECK POINT  END OF SOLVER       

       ELAPSED USER TIME (SEC)      =   0.0000    
       ELAPSED SYSTEM TIME (SEC)    =   0.0000    
       ELAPSED TOTAL CPU TIME (SEC) =   0.0000    
       ELAPSED WALLCLOCK TIME (SEC) =          0

               CONVERGENCE CHECKS FOR EQUILIBRIUM ITERATION     1


 AVERAGE HEAT FLUX                   172.       TIME AVG. HEAT FLUX    140.    
 LARGEST RESIDUAL HEAT FLUX        -1.280E-06   AT NODE        284   DOF 11
   INSTANCE: SZYNA2D-1                                                                       
 LARGEST INCREMENT OF TEMP.         -4.19       AT NODE        732   DOF 11
   INSTANCE: SZYNA2D-1                                                                       
 LARGEST CORRECTION TO TEMP.        5.947E-02   AT NODE        225   DOF 11
   INSTANCE: SZYNA2D-1                                                                       
          THE HEAT FLUX EQUILIBRIUM RESPONSE WAS LINEAR IN THIS INCREMENT

 MAXIMUM NON-PRESCRIBED INCREMENT IN TEMPERATURE IS   -4.19    

 ITERATION SUMMARY FOR THE INCREMENT:   1 TOTAL ITERATIONS, OF WHICH
   0 ARE SEVERE DISCONTINUITY ITERATIONS AND  1 ARE EQUILIBRIUM ITERATIONS.

 TIME INCREMENT COMPLETED   1.00    ,  FRACTION OF STEP COMPLETED  3.107E-02
 STEP TIME COMPLETED        37.3    ,  TOTAL TIME COMPLETED         37.3    


  INCREMENT    46 STARTS. ATTEMPT NUMBER  1, TIME INCREMENT   1.00    

  NUMBER OF EQUATIONS =      864     NUMBER OF FLOATING PT. OPERATIONS =  2.67E+05

     CHECK POINT   START OF SOLVER    

     CHECK POINT  END OF SOLVER       

       ELAPSED USER TIME (SEC)      =  0.10000    
       ELAPSED SYSTEM TIME (SEC)    =   0.0000    
       ELAPSED TOTAL CPU TIME (SEC) =  0.10000    
       ELAPSED WALLCLOCK TIME (SEC) =          0

               CONVERGENCE CHECKS FOR EQUILIBRIUM ITERATION     1


 AVERAGE HEAT FLUX                   172.       TIME AVG. HEAT FLUX    141.    
 LARGEST RESIDUAL HEAT FLUX         1.624E-04   AT NODE         68   DOF 11
   INSTANCE: SZYNA2D-1                                                                       
 LARGEST INCREMENT OF TEMP.         -4.14       AT NODE        732   DOF 11
   INSTANCE: SZYNA2D-1                                                                       
 LARGEST CORRECTION TO TEMP.        5.716E-02   AT NODE        218   DOF 11
   INSTANCE: SZYNA2D-1                                                                       
 ESTIMATE OF TEMP.    CORRECTION    2.411E-06
 HEAT FLUX EQUILIB. ACCEPTED BASED ON SMALL RESIDUAL AND ESTIMATED CORRECTION

 MAXIMUM NON-PRESCRIBED INCREMENT IN TEMPERATURE IS   -4.14    

 ITERATION SUMMARY FOR THE INCREMENT:   1 TOTAL ITERATIONS, OF WHICH
   0 ARE SEVERE DISCONTINUITY ITERATIONS AND  1 ARE EQUILIBRIUM ITERATIONS.

 TIME INCREMENT COMPLETED   1.00    ,  FRACTION OF STEP COMPLETED  3.191E-02
 STEP TIME COMPLETED        38.3    ,  TOTAL TIME COMPLETED         38.3    


  INCREMENT    47 STARTS. ATTEMPT NUMBER  1, TIME INCREMENT   1.00    

  NUMBER OF EQUATIONS =      864     NUMBER OF FLOATING PT. OPERATIONS =  2.67E+05

     CHECK POINT   START OF SOLVER    

     CHECK POINT  END OF SOLVER       

       ELAPSED USER TIME (SEC)      =   0.0000    
       ELAPSED SYSTEM TIME (SEC)    =   0.0000    
       ELAPSED TOTAL CPU TIME (SEC) =   0.0000    
       ELAPSED WALLCLOCK TIME (SEC) =          0

               CONVERGENCE CHECKS FOR EQUILIBRIUM ITERATION     1


 AVERAGE HEAT FLUX                   172.       TIME AVG. HEAT FLUX    142.    
 LARGEST RESIDUAL HEAT FLUX        -1.081E-06   AT NODE         65   DOF 11
   INSTANCE: SZYNA2D-1                                                                       
 LARGEST INCREMENT OF TEMP.         -4.10       AT NODE        732   DOF 11
   INSTANCE: SZYNA2D-1                                                                       
 LARGEST CORRECTION TO TEMP.        5.502E-02   AT NODE        218   DOF 11
[...]
       ELAPSED SYSTEM TIME (SEC)    =   0.0000    
       ELAPSED TOTAL CPU TIME (SEC) =   0.0000    
       ELAPSED WALLCLOCK TIME (SEC) =          0

               CONVERGENCE CHECKS FOR EQUILIBRIUM ITERATION     1


 AVERAGE HEAT FLUX                   140.       TIME AVG. HEAT FLUX    154.    
 LARGEST RESIDUAL HEAT FLUX         8.810E-06   AT NODE        297   DOF 11
   INSTANCE: SZYNA2D-1                                                                       
 LARGEST INCREMENT OF TEMP.         -1.63       AT NODE        715   DOF 11
   INSTANCE: SZYNA2D-1                                                                       
 LARGEST CORRECTION TO TEMP.        9.747E-03   AT NODE        852   DOF 11
   INSTANCE: SZYNA2D-1                                                                       
          THE HEAT FLUX EQUILIBRIUM EQUATIONS HAVE CONVERGED

 MAXIMUM NON-PRESCRIBED INCREMENT IN TEMPERATURE IS   -1.63    

 ITERATION SUMMARY FOR THE INCREMENT:   1 TOTAL ITERATIONS, OF WHICH
   0 ARE SEVERE DISCONTINUITY ITERATIONS AND  1 ARE EQUILIBRIUM ITERATIONS.

 TIME INCREMENT COMPLETED   1.00    ,  FRACTION OF STEP COMPLETED  0.142    
 STEP TIME COMPLETED        170.    ,  TOTAL TIME COMPLETED         170.    


  INCREMENT   179 STARTS. ATTEMPT NUMBER  1, TIME INCREMENT   1.00    

  NUMBER OF EQUATIONS =      864     NUMBER OF FLOATING PT. OPERATIONS =  2.67E+05

     CHECK POINT   START OF SOLVER    

     CHECK POINT  END OF SOLVER       

       ELAPSED USER TIME (SEC)      =   0.0000    
       ELAPSED SYSTEM TIME (SEC)    =   0.0000    
       ELAPSED TOTAL CPU TIME (SEC) =   0.0000    
       ELAPSED WALLCLOCK TIME (SEC) =          0

               CONVERGENCE CHECKS FOR EQUILIBRIUM ITERATION     1


 AVERAGE HEAT FLUX                   140.       TIME AVG. HEAT FLUX    154.    
 LARGEST RESIDUAL HEAT FLUX        -2.388E-08   AT NODE         47   DOF 11
   INSTANCE: SZYNA2D-1                                                                       
 LARGEST INCREMENT OF TEMP.         -1.62       AT NODE        715   DOF 11
   INSTANCE: SZYNA2D-1                                                                       
 LARGEST CORRECTION TO TEMP.        9.672E-03   AT NODE        761   DOF 11
   INSTANCE: SZYNA2D-1                                                                       
          THE HEAT FLUX EQUILIBRIUM RESPONSE WAS LINEAR IN THIS INCREMENT

 MAXIMUM NON-PRESCRIBED INCREMENT IN TEMPERATURE IS   -1.62    

 ITERATION SUMMARY FOR THE INCREMENT:   1 TOTAL ITERATIONS, OF WHICH
   0 ARE SEVERE DISCONTINUITY ITERATIONS AND  1 ARE EQUILIBRIUM ITERATIONS.

 TIME INCREMENT COMPLETED   1.00    ,  FRACTION OF STEP COMPLETED  0.143    
 STEP TIME COMPLETED        171.    ,  TOTAL TIME COMPLETED         171.    


  INCREMENT   180 STARTS. ATTEMPT NUMBER  1, TIME INCREMENT   1.00    

  NUMBER OF EQUATIONS =      864     NUMBER OF FLOATING PT. OPERATIONS =  2.67E+05

     CHECK POINT   START OF SOLVER    

     CHECK POINT  END OF SOLVER       

       ELAPSED USER TIME (SEC)      =   0.0000    
       ELAPSED SYSTEM TIME (SEC)    =   0.0000    
       ELAPSED TOTAL CPU TIME (SEC) =   0.0000    
       ELAPSED WALLCLOCK TIME (SEC) =          0

               CONVERGENCE CHECKS FOR EQUILIBRIUM ITERATION     1


 AVERAGE HEAT FLUX                   140.       TIME AVG. HEAT FLUX    154.    
 LARGEST RESIDUAL HEAT FLUX         8.546E-06   AT NODE        297   DOF 11
   INSTANCE: SZYNA2D-1                                                                       
 LARGEST INCREMENT OF TEMP.         -1.62       AT NODE        715   DOF 11
   INSTANCE: SZYNA2D-1                                                                       
 LARGEST CORRECTION TO TEMP.        9.598E-03   AT NODE        761   DOF 11
   INSTANCE: SZYNA2D-1                                                                       
          THE HEAT FLUX EQUILIBRIUM EQUATIONS HAVE CONVERGED

 MAXIMUM NON-PRESCRIBED INCREMENT IN TEMPERATURE IS   -1.62    

 ITERATION SUMMARY FOR THE INCREMENT:   1 TOTAL ITERATIONS, OF WHICH
   0 ARE SEVERE DISCONTINUITY ITERATIONS AND  1 ARE EQUILIBRIUM ITERATIONS.

 TIME INCREMENT COMPLETED   1.00    ,  FRACTION OF STEP COMPLETED  0.144    
 STEP TIME COMPLETED        172.    ,  TOTAL TIME COMPLETED         172.    


  INCREMENT   181 STARTS. ATTEMPT NUMBER  1, TIME INCREMENT   1.00    

  NUMBER OF EQUATIONS =      864     NUMBER OF FLOATING PT. OPERATIONS =  2.67E+05

     CHECK POINT   START OF SOLVER    

     CHECK POINT  END OF SOLVER       

       ELAPSED USER TIME (SEC)      =   0.0000    
       ELAPSED SYSTEM TIME (SEC)    =   0.0000    
       ELAPSED TOTAL CPU TIME (SEC) =   0.0000    
       ELAPSED WALLCLOCK TIME (SEC) =          0

               CONVERGENCE CHECKS FOR EQUILIBRIUM ITERATION     1


 AVERAGE HEAT FLUX                   139.       TIME AVG. HEAT FLUX    154.    
 LARGEST RESIDUAL HEAT FLUX        -2.306E-08   AT NODE         47   DOF 11
   INSTANCE: SZYNA2D-1                                                                       
 LARGEST INCREMENT OF TEMP.         -1.61       AT NODE        715   DOF 11
   INSTANCE: SZYNA2D-1                                                                       
 LARGEST CORRECTION TO TEMP.        9.525E-03   AT NODE        761   DOF 11
   INSTANCE: SZYNA2D-1                                                                       
          THE HEAT FLUX EQUILIBRIUM RESPONSE WAS LINEAR IN THIS INCREMENT

 MAXIMUM NON-PRESCRIBED INCREMENT IN TEMPERATURE IS   -1.61    

 ITERATION SUMMARY FOR THE INCREMENT:   1 TOTAL ITERATIONS, OF WHICH
   0 ARE SEVERE DISCONTINUITY ITERATIONS AND  1 ARE EQUILIBRIUM ITERATIONS.

 TIME INCREMENT COMPLETED   1.00    ,  FRACTION OF STEP COMPLETED  0.144    
 STEP TIME COMPLETED        173.    ,  TOTAL TIME COMPLETED         173.    


  INCREMENT   182 STARTS. ATTEMPT NUMBER  1, TIME INCREMENT   1.00    

  NUMBER OF EQUATIONS =      864     NUMBER OF FLOATING PT. OPERATIONS =  2.67E+05

     CHECK POINT   START OF SOLVER    

     CHECK POINT  END OF SOLVER       

       ELAPSED USER TIME (SEC)      =   0.0000    
       ELAPSED SYSTEM TIME (SEC)    =   0.0000    
       ELAPSED TOTAL CPU TIME (SEC) =   0.0000    
       ELAPSED WALLCLOCK TIME (SEC) =          0

               CONVERGENCE CHECKS FOR EQUILIBRIUM ITERATION     1


 AVERAGE HEAT FLUX                   139.       TIME AVG. HEAT FLUX    153.    
 LARGEST RESIDUAL HEAT FLUX         8.290E-06   AT NODE        297   DOF 11
   INSTANCE: SZYNA2D-1                                                                       
 LARGEST INCREMENT OF TEMP.         -1.60       AT NODE        715   DOF 11
   INSTANCE: SZYNA2D-1                                                                       
 LARGEST CORRECTION TO TEMP.        9.453E-03   AT NODE        761   DOF 11
   INSTANCE: SZYNA2D-1                                                                       
          THE HEAT FLUX EQUILIBRIUM EQUATIONS HAVE CONVERGED

 MAXIMUM NON-PRESCRIBED INCREMENT IN TEMPERATURE IS   -1.60    

 ITERATION SUMMARY FOR THE INCREMENT:   1 TOTAL ITERATIONS, OF WHICH
   0 ARE SEVERE DISCONTINUITY ITERATIONS AND  1 ARE EQUILIBRIUM ITERATIONS.

 TIME INCREMENT COMPLETED   1.00    ,  FRACTION OF STEP COMPLETED  0.145    
 STEP TIME COMPLETED        174.    ,  TOTAL TIME COMPLETED         174.    


  INCREMENT   183 STARTS. ATTEMPT NUMBER  1, TIME INCREMENT   1.00    

  NUMBER OF EQUATIONS =      864     NUMBER OF FLOATING PT. OPERATIONS =  2.67E+05

     CHECK POINT   START OF SOLVER    

     CHECK POINT  END OF SOLVER       

       ELAPSED USER TIME (SEC)      =   0.0000    
       ELAPSED SYSTEM TIME (SEC)    =   0.0000    
       ELAPSED TOTAL CPU TIME (SEC) =   0.0000    
       ELAPSED WALLCLOCK TIME (SEC) =          0

               CONVERGENCE CHECKS FOR EQUILIBRIUM ITERATION     1


 AVERAGE HEAT FLUX                   139.       TIME AVG. HEAT FLUX    153.    
 LARGEST RESIDUAL HEAT FLUX        -2.227E-08   AT NODE         47   DOF 11
   INSTANCE: SZYNA2D-1                                                                       
 LARGEST INCREMENT OF TEMP.         -1.59       AT NODE        715   DOF 11
   INSTANCE: SZYNA2D-1                                                                       
 LARGEST CORRECTION TO TEMP.        9.381E-03   AT NODE        761   DOF 11
   INSTANCE: SZYNA2D-1                                                                       
          THE HEAT FLUX EQUILIBRIUM RESPONSE WAS LINEAR IN THIS INCREMENT

 MAXIMUM NON-PRESCRIBED INCREMENT IN TEMPERATURE IS   -1.59    

 ITERATION SUMMARY FOR THE INCREMENT:   1 TOTAL ITERATIONS, OF WHICH
   0 ARE SEVERE DISCONTINUITY ITERATIONS AND  1 ARE EQUILIBRIUM ITERATIONS.

 TIME INCREMENT COMPLETED   1.00    ,  FRACTION OF STEP COMPLETED  0.146    
 STEP TIME COMPLETED        175.    ,  TOTAL TIME COMPLETED         175.    


  INCREMENT   184 STARTS. ATTEMPT NUMBER  1, TIME INCREMENT   1.00    

  NUMBER OF EQUATIONS =      864     NUMBER OF FLOATING PT. OPERATIONS =  2.67E+05

     CHECK POINT   START OF SOLVER    

     CHECK POINT  END OF SOLVER       

       ELAPSED USER TIME (SEC)      =   0.0000    
       ELAPSED SYSTEM TIME (SEC)    =   0.0000    
       ELAPSED TOTAL CPU TIME (SEC) =   0.0000    
       ELAPSED WALLCLOCK TIME (SEC) =          0

               CONVERGENCE CHECKS FOR EQUILIBRIUM ITERATION     1


 AVERAGE HEAT FLUX                   138.       TIME AVG. HEAT FLUX    153.    
 LARGEST RESIDUAL HEAT FLUX         8.042E-06   AT NODE        297   DOF 11
   INSTANCE: SZYNA2D-1                                                                       
 LARGEST INCREMENT OF TEMP.         -1.58       AT NODE        715   DOF 11
   INSTANCE: SZYNA2D-1                                                                       
 LARGEST CORRECTION TO TEMP.        9.310E-03   AT NODE        761   DOF 11
   INSTANCE: SZYNA2D-1                                                                       
          THE HEAT FLUX EQUILIBRIUM EQUATIONS HAVE CONVERGED

 MAXIMUM NON-PRESCRIBED INCREMENT IN TEMPERATURE IS   -1.58    

 ITERATION SUMMARY FOR THE INCREMENT:   1 TOTAL ITERATIONS, OF WHICH
   0 ARE SEVERE DISCONTINUITY ITERATIONS AND  1 ARE EQUILIBRIUM ITERATIONS.

 TIME INCREMENT COMPLETED   1.00    ,  FRACTION OF STEP COMPLETED  0.147    
 STEP TIME COMPLETED        176.    ,  TOTAL TIME COMPLETED         176.    


  INCREMENT   185 STARTS. ATTEMPT NUMBER  1, TIME INCREMENT   1.00    

  NUMBER OF EQUATIONS =      864     NUMBER OF FLOATING PT. OPERATIONS =  2.67E+05

     CHECK POINT   START OF SOLVER    

     CHECK POINT  END OF SOLVER       

       ELAPSED USER TIME (SEC)      =   0.0000    
       ELAPSED SYSTEM TIME (SEC)    =   0.0000    
       ELAPSED TOTAL CPU TIME (SEC) =   0.0000    
       ELAPSED WALLCLOCK TIME (SEC) =          0

               CONVERGENCE CHECKS FOR EQUILIBRIUM ITERATION     1


 AVERAGE HEAT FLUX                   138.       TIME AVG. HEAT FLUX    153.    
 LARGEST RESIDUAL HEAT FLUX        -2.151E-08   AT NODE         47   DOF 11
   INSTANCE: SZYNA2D-1                                                                       
 LARGEST INCREMENT OF TEMP.         -1.57       AT NODE        170   DOF 11
   INSTANCE: SZYNA2D-1                                                                       
 LARGEST CORRECTION TO TEMP.        9.240E-03   AT NODE        761   DOF 11
   INSTANCE: SZYNA2D-1                                                                       
          THE HEAT FLUX EQUILIBRIUM RESPONSE WAS LINEAR IN THIS INCREMENT

 MAXIMUM NON-PRESCRIBED INCREMENT IN TEMPERATURE IS   -1.57    

 ITERATION SUMMARY FOR THE INCREMENT:   1 TOTAL ITERATIONS, OF WHICH
   0 ARE SEVERE DISCONTINUITY ITERATIONS AND  1 ARE EQUILIBRIUM ITERATIONS.

 TIME INCREMENT COMPLETED   1.00    ,  FRACTION OF STEP COMPLETED  0.148    
 STEP TIME COMPLETED        177.    ,  TOTAL TIME COMPLETED         177.    


  INCREMENT   186 STARTS. ATTEMPT NUMBER  1, TIME INCREMENT   1.00    

  NUMBER OF EQUATIONS =      864     NUMBER OF FLOATING PT. OPERATIONS =  2.67E+05

     CHECK POINT   START OF SOLVER    

     CHECK POINT  END OF SOLVER       

       ELAPSED USER TIME (SEC)      =   0.0000    
       ELAPSED SYSTEM TIME (SEC)    =   0.0000    
       ELAPSED TOTAL CPU TIME (SEC) =   0.0000    
       ELAPSED WALLCLOCK TIME (SEC) =          0

               CONVERGENCE CHECKS FOR EQUILIBRIUM ITERATION     1


 AVERAGE HEAT FLUX                   136.       TIME AVG. HEAT FLUX    153.    
 LARGEST RESIDUAL HEAT FLUX         0.208       AT NODE        281   DOF 11
   INSTANCE: SZYNA2D-1                                                                       
 LARGEST INCREMENT OF TEMP.         -1.56       AT NODE        170   DOF 11
   INSTANCE: SZYNA2D-1                                                                       
 LARGEST CORRECTION TO TEMP.         1.03       AT NODE         52   DOF 11
   INSTANCE: SZYNA2D-1                                                                       
 ESTIMATE OF TEMP.    CORRECTION    3.770E-03
 HEAT FLUX EQUILIB. ACCEPTED BASED ON SMALL RESIDUAL AND ESTIMATED CORRECTION

 MAXIMUM NON-PRESCRIBED INCREMENT IN TEMPERATURE IS   -1.56    

 ITERATION SUMMARY FOR THE INCREMENT:   1 TOTAL ITERATIONS, OF WHICH
   0 ARE SEVERE DISCONTINUITY ITERATIONS AND  1 ARE EQUILIBRIUM ITERATIONS.

 TIME INCREMENT COMPLETED   1.00    ,  FRACTION OF STEP COMPLETED  0.149    
 STEP TIME COMPLETED        178.    ,  TOTAL TIME COMPLETED         178.    


  INCREMENT   187 STARTS. ATTEMPT NUMBER  1, TIME INCREMENT   1.00    

  NUMBER OF EQUATIONS =      864     NUMBER OF FLOATING PT. OPERATIONS =  2.67E+05

     CHECK POINT   START OF SOLVER    

     CHECK POINT  END OF SOLVER       

       ELAPSED USER TIME (SEC)      =   0.0000    
       ELAPSED SYSTEM TIME (SEC)    =   0.0000    
       ELAPSED TOTAL CPU TIME (SEC) =   0.0000    
       ELAPSED WALLCLOCK TIME (SEC) =          0

               CONVERGENCE CHECKS FOR EQUILIBRIUM ITERATION     1


 AVERAGE HEAT FLUX                   129.       TIME AVG. HEAT FLUX    153.    
 LARGEST RESIDUAL HEAT FLUX        -1.804E-03   AT NODE        281   DOF 11
   INSTANCE: SZYNA2D-1                                                                       
 LARGEST INCREMENT OF TEMP.          3.06       AT NODE         58   DOF 11
   INSTANCE: SZYNA2D-1                                                                       
 LARGEST CORRECTION TO TEMP.         3.15       AT NODE         58   DOF 11
   INSTANCE: SZYNA2D-1                                                                       
 ESTIMATE OF TEMP.    CORRECTION   -3.619E-05
 HEAT FLUX EQUILIB. ACCEPTED BASED ON SMALL RESIDUAL AND ESTIMATED CORRECTION

 MAXIMUM NON-PRESCRIBED INCREMENT IN TEMPERATURE IS    3.06    

 ITERATION SUMMARY FOR THE INCREMENT:   1 TOTAL ITERATIONS, OF WHICH
   0 ARE SEVERE DISCONTINUITY ITERATIONS AND  1 ARE EQUILIBRIUM ITERATIONS.

 TIME INCREMENT COMPLETED   1.00    ,  FRACTION OF STEP COMPLETED  0.149    
 STEP TIME COMPLETED        179.    ,  TOTAL TIME COMPLETED         179.    


  INCREMENT   188 STARTS. ATTEMPT NUMBER  1, TIME INCREMENT   1.00    

  NUMBER OF EQUATIONS =      864     NUMBER OF FLOATING PT. OPERATIONS =  2.67E+05

     CHECK POINT   START OF SOLVER    

     CHECK POINT  END OF SOLVER       

       ELAPSED USER TIME (SEC)      =   0.0000    
       ELAPSED SYSTEM TIME (SEC)    =   0.0000    
       ELAPSED TOTAL CPU TIME (SEC) =   0.0000    
       ELAPSED WALLCLOCK TIME (SEC) =          0

               CONVERGENCE CHECKS FOR EQUILIBRIUM ITERATION     1


 AVERAGE HEAT FLUX                   121.       TIME AVG. HEAT FLUX    153.    
 LARGEST RESIDUAL HEAT FLUX        -7.804E-04   AT NODE         73   DOF 11
   INSTANCE: SZYNA2D-1                                                                       
 LARGEST INCREMENT OF TEMP.          5.15       AT NODE         58   DOF 11
   INSTANCE: SZYNA2D-1                                                                       
 LARGEST CORRECTION TO TEMP.         2.16       AT NODE         73   DOF 11
   INSTANCE: SZYNA2D-1                                                                       
 ESTIMATE OF TEMP.    CORRECTION   -2.250E-05
 HEAT FLUX EQUILIB. ACCEPTED BASED ON SMALL RESIDUAL AND ESTIMATED CORRECTION

 MAXIMUM NON-PRESCRIBED INCREMENT IN TEMPERATURE IS    5.15    

 ITERATION SUMMARY FOR THE INCREMENT:   1 TOTAL ITERATIONS, OF WHICH
   0 ARE SEVERE DISCONTINUITY ITERATIONS AND  1 ARE EQUILIBRIUM ITERATIONS.

 TIME INCREMENT COMPLETED   1.00    ,  FRACTION OF STEP COMPLETED  0.150    
 STEP TIME COMPLETED        180.    ,  TOTAL TIME COMPLETED         180.    


  INCREMENT   189 STARTS. ATTEMPT NUMBER  1, TIME INCREMENT   1.00    

  NUMBER OF EQUATIONS =      864     NUMBER OF FLOATING PT. OPERATIONS =  2.67E+05

     CHECK POINT   START OF SOLVER    

     CHECK POINT  END OF SOLVER       

       ELAPSED USER TIME (SEC)      =   0.0000    
       ELAPSED SYSTEM TIME (SEC)    =   0.0000    
       ELAPSED TOTAL CPU TIME (SEC) =   0.0000    
       ELAPSED WALLCLOCK TIME (SEC) =          0

               CONVERGENCE CHECKS FOR EQUILIBRIUM ITERATION     1


 AVERAGE HEAT FLUX                   115.       TIME AVG. HEAT FLUX    153.    
 LARGEST RESIDUAL HEAT FLUX        -1.171E-04   AT NODE         73   DOF 11
   INSTANCE: SZYNA2D-1                                                                       
 LARGEST INCREMENT OF TEMP.          5.91       AT NODE         59   DOF 11
   INSTANCE: SZYNA2D-1                                                                       
 LARGEST CORRECTION TO TEMP.         1.12       AT NODE        226   DOF 11
   INSTANCE: SZYNA2D-1                                                                       
 ESTIMATE OF TEMP.    CORRECTION   -1.637E-06
 HEAT FLUX EQUILIB. ACCEPTED BASED ON SMALL RESIDUAL AND ESTIMATED CORRECTION

 MAXIMUM NON-PRESCRIBED INCREMENT IN TEMPERATURE IS    5.91    

 ITERATION SUMMARY FOR THE INCREMENT:   1 TOTAL ITERATIONS, OF WHICH
   0 ARE SEVERE DISCONTINUITY ITERATIONS AND  1 ARE EQUILIBRIUM ITERATIONS.

 TIME INCREMENT COMPLETED   1.00    ,  FRACTION OF STEP COMPLETED  0.151    
 STEP TIME COMPLETED        181.    ,  TOTAL TIME COMPLETED         181.    


  INCREMENT   190 STARTS. ATTEMPT NUMBER  1, TIME INCREMENT   1.00    

  NUMBER OF EQUATIONS =      864     NUMBER OF FLOATING PT. OPERATIONS =  2.67E+05

     CHECK POINT   START OF SOLVER    

     CHECK POINT  END OF SOLVER       

       ELAPSED USER TIME (SEC)      =   0.0000    
       ELAPSED SYSTEM TIME (SEC)    =   0.0000    
       ELAPSED TOTAL CPU TIME (SEC) =   0.0000    
       ELAPSED WALLCLOCK TIME (SEC) =          0

 ***ERROR: Process terminated by external request (SIGTERM or SIGINT received).



     ANALYSIS SUMMARY:
     TOTAL OF        190  INCREMENTS
                       0  CUTBACKS IN AUTOMATIC INCREMENTATION
                     190  ITERATIONS INCLUDING CONTACT ITERATIONS IF PRESENT
                     190  PASSES THROUGH THE EQUATION SOLVER OF WHICH 
                     119  INVOLVE MATRIX DECOMPOSITION, INCLUDING
                       0  DECOMPOSITION(S) OF THE MASS MATRIX
                       1  REORDERING OF EQUATIONS TO MINIMIZE WAVEFRONT
                       0  ADDITIONAL RESIDUAL EVALUATIONS FOR LINE SEARCHES
                       0  ADDITIONAL OPERATOR EVALUATIONS FOR LINE SEARCHES
                       0  WARNING MESSAGES DURING USER INPUT PROCESSING
                       0  WARNING MESSAGES DURING ANALYSIS
                       0  ANALYSIS WARNINGS ARE NUMERICAL PROBLEM MESSAGES
                       0  ANALYSIS WARNINGS ARE NEGATIVE EIGENVALUE MESSAGES
                       1  ERROR MESSAGES



     JOB TIME SUMMARY
       USER TIME (SEC)      =   4.9000    
       SYSTEM TIME (SEC)    =  0.90000    
       TOTAL CPU TIME (SEC) =   5.8000    
       WALLCLOCK TIME (SEC) =          6
