 Abaqus/Standard Student Edition 6.14-2                  DATE 05-maj-2017 TIME 18:38:28
 SUMMARY OF JOB INFORMATION:
 STEP  INC ATT SEVERE EQUIL TOTAL  TOTAL      STEP       INC OF       DOF    IF
               DISCON ITERS ITERS  TIME/    TIME/LPF    TIME/LPF    MONITOR RIKS
               ITERS               FREQ
   1     1   1     0     1     1  0.0100     0.0100     0.01000   
   1     2   1     0     1     1  0.0200     0.0200     0.01000   
   1     3   1     0     1     1  0.0300     0.0300     0.01000   
   1     4   1     0     1     1  0.0500     0.0500     0.02000   
   1     5   1     0     1     1  0.0900     0.0900     0.04000   
   1     6   1     0     1     1  0.170      0.170      0.08000   
   1     7   1     0     1     1  0.330      0.330      0.1600    
   1     8   1     0     1     1  0.650      0.650      0.3200    
   1     9   1     0     1     1  1.29       1.29       0.6400    
   1    10   1     0     1     1  2.29       2.29       1.000     
   1    11   1     0     1     1  3.29       3.29       1.000     
   1    12   1     0     1     1  4.29       4.29       1.000     
   1    13   1     0     1     1  5.29       5.29       1.000     
   1    14   1     0     1     1  6.29       6.29       1.000     
   1    15   1     0     1     1  7.29       7.29       1.000     
   1    16   1     0     1     1  8.29       8.29       1.000     
   1    17   1     0     1     1  9.29       9.29       1.000     
   1    18   1     0     1     1  10.3       10.3       1.000     
   1    19   1     0     1     1  11.3       11.3       1.000     
   1    20   1     0     1     1  12.3       12.3       1.000     
   1    21   1     0     1     1  13.3       13.3       1.000     
   1    22   1     0     1     1  14.3       14.3       1.000     
   1    23   1     0     1     1  15.3       15.3       1.000     
   1    24   1     0     1     1  16.3       16.3       1.000     
   1    25   1     0     1     1  17.3       17.3       1.000     
   1    26   1     0     1     1  18.3       18.3       1.000     
   1    27   1     0     1     1  19.3       19.3       1.000     
   1    28   1     0     1     1  20.3       20.3       1.000     
   1    29   1     0     1     1  21.3       21.3       1.000     
   1    30   1     0     1     1  22.3       22.3       1.000     
   1    31   1     0     1     1  23.3       23.3       1.000     
   1    32   1     0     1     1  24.3       24.3       1.000     
   1    33   1     0     1     1  25.3       25.3       1.000     
   1    34   1     0     1     1  26.3       26.3       1.000     
   1    35   1     0     1     1  27.3       27.3       1.000     
   1    36   1     0     1     1  28.3       28.3       1.000     
   1    37   1     0     1     1  29.3       29.3       1.000     
   1    38   1     0     1     1  30.3       30.3       1.000     
   1    39   1     0     1     1  31.3       31.3       1.000     
   1    40   1     0     1     1  32.3       32.3       1.000     
   1    41   1     0     1     1  33.3       33.3       1.000     
   1    42   1     0     1     1  34.3       34.3       1.000     
   1    43   1     0     1     1  35.3       35.3       1.000     
   1    44   1     0     1     1  36.3       36.3       1.000     
   1    45   1     0     1     1  37.3       37.3       1.000     
   1    46   1     0     1     1  38.3       38.3       1.000     
   1    47   1     0     1     1  39.3       39.3       1.000     
   1    48   1     0     1     1  40.3       40.3       1.000     
   1    49   1     0     1     1  41.3       41.3       1.000     
   1    50   1     0     1     1  42.3       42.3       1.000     
   1    51   1     0     1     1  43.3       43.3       1.000     
   1    52   1     0     1     1  44.3       44.3       1.000     
   1    53   1     0     1     1  45.3       45.3       1.000     
   1    54   1     0     1     1  46.3       46.3       1.000     
   1    55   1     0     1     1  47.3       47.3       1.000     
   1    56   1     0     1     1  48.3       48.3       1.000     
   1    57   1     0     1     1  49.3       49.3       1.000     
   1    58   1     0     1     1  50.3       50.3       1.000     
   1    59   1     0     1     1  51.3       51.3       1.000     
   1    60   1     0     1     1  52.3       52.3       1.000     
   1    61   1     0     1     1  53.3       53.3       1.000     
   1    62   1     0     1     1  54.3       54.3       1.000     
   1    63   1     0     1     1  55.3       55.3       1.000     
   1    64   1     0     1     1  56.3       56.3       1.000     
   1    65   1     0     1     1  57.3       57.3       1.000     
   1    66   1     0     1     1  58.3       58.3       1.000     
   1    67   1     0     1     1  59.3       59.3       1.000     
   1    68   1     0     1     1  60.3       60.3       1.000     
   1    69   1     0     1     1  61.3       61.3       1.000     
   1    70   1     0     1     1  62.3       62.3       1.000     
   1    71   1     0     1     1  63.3       63.3       1.000     
   1    72   1     0     1     1  64.3       64.3       1.000     
   1    73   1     0     1     1  65.3       65.3       1.000     
   1    74   1     0     1     1  66.3       66.3       1.000     
   1    75   1     0     1     1  67.3       67.3       1.000     
   1    76   1     0     1     1  68.3       68.3       1.000     
   1    77   1     0     1     1  69.3       69.3       1.000     
   1    78   1     0     1     1  70.3       70.3       1.000     
   1    79   1     0     1     1  71.3       71.3       1.000     
   1    80   1     0     1     1  72.3       72.3       1.000     
   1    81   1     0     1     1  73.3       73.3       1.000     
   1    82   1     0     1     1  74.3       74.3       1.000     
   1    83   1     0     1     1  75.3       75.3       1.000     
   1    84   1     0     1     1  76.3       76.3       1.000     
   1    85   1     0     1     1  77.3       77.3       1.000     
   1    86   1     0     1     1  78.3       78.3       1.000     
   1    87   1     0     1     1  79.3       79.3       1.000     
   1    88   1     0     1     1  80.3       80.3       1.000     
   1    89   1     0     1     1  81.3       81.3       1.000     
   1    90   1     0     1     1  82.3       82.3       1.000     
   1    91   1     0     1     1  83.3       83.3       1.000     
   1    92   1     0     1     1  84.3       84.3       1.000     
   1    93   1     0     1     1  85.3       85.3       1.000     
   1    94   1     0     1     1  86.3       86.3       1.000     
   1    95   1     0     1     1  87.3       87.3       1.000     
   1    96   1     0     1     1  88.3       88.3       1.000     
   1    97   1     0     1     1  89.3       89.3       1.000     
   1    98   1     0     1     1  90.3       90.3       1.000     
   1    99   1     0     1     1  91.3       91.3       1.000     
   1   100   1     0     1     1  92.3       92.3       1.000     
   1   101   1     0     1     1  93.3       93.3       1.000     
   1   102   1     0     1     1  94.3       94.3       1.000     
   1   103   1     0     1     1  95.3       95.3       1.000     
   1   104   1     0     1     1  96.3       96.3       1.000     
   1   105   1     0     1     1  97.3       97.3       1.000     
   1   106   1     0     1     1  98.3       98.3       1.000     
   1   107   1     0     1     1  99.3       99.3       1.000     
   1   108   1     0     1     1  100.       100.       1.000     
   1   109   1     0     1     1  101.       101.       1.000     
   1   110   1     0     1     1  102.       102.       1.000     
   1   111   1     0     1     1  103.       103.       1.000     
   1   112   1     0     1     1  104.       104.       1.000     
   1   113   1     0     1     1  105.       105.       1.000     
   1   114   1     0     1     1  106.       106.       1.000     
   1   115   1     0     1     1  107.       107.       1.000     
   1   116   1     0     1     1  108.       108.       1.000     
   1   117   1     0     1     1  109.       109.       1.000     
   1   118   1     0     1     1  110.       110.       1.000     
   1   119   1     0     1     1  111.       111.       1.000     
   1   120   1     0     1     1  112.       112.       1.000     
   1   121   1     0     1     1  113.       113.       1.000     
   1   122   1     0     1     1  114.       114.       1.000     
   1   123   1     0     1     1  115.       115.       1.000     
   1   124   1     0     1     1  116.       116.       1.000     
   1   125   1     0     1     1  117.       117.       1.000     
   1   126   1     0     1     1  118.       118.       1.000     
   1   127   1     0     1     1  119.       119.       1.000     
   1   128   1     0     1     1  120.       120.       1.000     
   1   129   1     0     1     1  121.       121.       1.000     
   1   130   1     0     1     1  122.       122.       1.000     
   1   131   1     0     1     1  123.       123.       1.000     
   1   132   1     0     1     1  124.       124.       1.000     
   1   133   1     0     1     1  125.       125.       1.000     
   1   134   1     0     1     1  126.       126.       1.000     
   1   135   1     0     1     1  127.       127.       1.000     
   1   136   1     0     1     1  128.       128.       1.000     
   1   137   1     0     1     1  129.       129.       1.000     
   1   138   1     0     1     1  130.       130.       1.000     
   1   139   1     0     1     1  131.       131.       1.000     
   1   140   1     0     1     1  132.       132.       1.000     
   1   141   1     0     1     1  133.       133.       1.000     
   1   142   1     0     1     1  134.       134.       1.000     
   1   143   1     0     1     1  135.       135.       1.000     
   1   144   1     0     1     1  136.       136.       1.000     
   1   145   1     0     1     1  137.       137.       1.000     
   1   146   1     0     1     1  138.       138.       1.000     
   1   147   1     0     1     1  139.       139.       1.000     
   1   148   1     0     1     1  140.       140.       1.000     
   1   149   1     0     1     1  141.       141.       1.000     
   1   150   1     0     1     1  142.       142.       1.000     
   1   151   1     0     1     1  143.       143.       1.000     
   1   152   1     0     1     1  144.       144.       1.000     
   1   153   1     0     1     1  145.       145.       1.000     
   1   154   1     0     1     1  146.       146.       1.000     
   1   155   1     0     1     1  147.       147.       1.000     
   1   156   1     0     1     1  148.       148.       1.000     
   1   157   1     0     1     1  149.       149.       1.000     
   1   158   1     0     1     1  150.       150.       1.000     
   1   159   1     0     1     1  151.       151.       1.000     
   1   160   1     0     1     1  152.       152.       1.000     
   1   161   1     0     1     1  153.       153.       1.000     
   1   162   1     0     1     1  154.       154.       1.000     
   1   163   1     0     1     1  155.       155.       1.000     
   1   164   1     0     1     1  156.       156.       1.000     
   1   165   1     0     1     1  157.       157.       1.000     
   1   166   1     0     1     1  158.       158.       1.000     
   1   167   1     0     1     1  159.       159.       1.000     
   1   168   1     0     1     1  160.       160.       1.000     
   1   169   1     0     1     1  161.       161.       1.000     
   1   170   1     0     1     1  162.       162.       1.000     
   1   171   1     0     1     1  163.       163.       1.000     
   1   172   1     0     1     1  164.       164.       1.000     
   1   173   1     0     1     1  165.       165.       1.000     
   1   174   1     0     1     1  166.       166.       1.000     
   1   175   1     0     1     1  167.       167.       1.000     
   1   176   1     0     1     1  168.       168.       1.000     
   1   177   1     0     1     1  169.       169.       1.000     
   1   178   1     0     1     1  170.       170.       1.000     
   1   179   1     0     1     1  171.       171.       1.000     
   1   180   1     0     1     1  172.       172.       1.000     
   1   181   1     0     1     1  173.       173.       1.000     
   1   182   1     0     1     1  174.       174.       1.000     
   1   183   1     0     1     1  175.       175.       1.000     
   1   184   1     0     1     1  176.       176.       1.000     
   1   185   1     0     1     1  177.       177.       1.000     
   1   186   1     0     1     1  178.       178.       1.000     
   1   187   1     0     1     1  179.       179.       1.000     
   1   188   1     0     1     1  180.       180.       1.000     
   1   189   1     0     1     1  181.       181.       1.000     
                          
 THE ANALYSIS HAS NOT BEEN COMPLETED
