1

   Abaqus 6.14-2                                  Date 05-maj-2017   Time 18:38:27
   



     PROCESSING PART, INSTANCE, AND ASSEMBLY INFORMATION
   *******************************************************


     END PROCESSING PART, INSTANCE, AND ASSEMBLY INFORMATION
   ***********************************************************




     OPTIONS BEING PROCESSED
   ***************************


  *Heading
  *Node
  *Element, type=DC2D3
  *Element, type=DC2D4
  *Nset, nset=ASSEMBLY_SZYNA2D-1_CALA
  *Elset, elset=ASSEMBLY_SZYNA2D-1_CALA
  *Elset, elset=ASSEMBLY_SZYNA2D-1__GLOWKA_S1
  *Elset, elset=ASSEMBLY_SZYNA2D-1__GLOWKA_S2
  *Elset, elset=ASSEMBLY_SZYNA2D-1__GLOWKA_S3
  *Elset, elset=ASSEMBLY_SZYNA2D-1__GLOWKA_S4
  *Elset, elset=ASSEMBLY_SZYNA2D-1__STOPKA_S1
  *Elset, elset=ASSEMBLY_SZYNA2D-1__STOPKA_S2
  *Elset, elset=ASSEMBLY_SZYNA2D-1__STOPKA_S3
  *Elset, elset=ASSEMBLY_SZYNA2D-1__STOPKA_S4
  *Nset, nset=ASSEMBLY_COOLINGPOINT
  *Elset, elset=ASSEMBLY__CALOSC_S1
  *Elset, elset=ASSEMBLY__CALOSC_S2
  *Elset, elset=ASSEMBLY__CALOSC_S3
  *Elset, elset=ASSEMBLY__CALOSC_S4
  *physicalconstants, absolutezero=-273, stefanboltzmann=5.67e-08
  *surface, type=ELEMENT, name=ASSEMBLY_SZYNA2D-1_GLOWKA
  *surface, type=ELEMENT, name=ASSEMBLY_SZYNA2D-1_STOPKA
  *surface, type=ELEMENT, name=ASSEMBLY_CALOSC
  *surface, type=ELEMENT, name=ASSEMBLY_SZYNA2D-1_GLOWKA
  *surface, type=ELEMENT, name=ASSEMBLY_SZYNA2D-1_STOPKA
  *surface, type=ELEMENT, name=ASSEMBLY_CALOSC
  *material, name=STAL
  *conductivity
  *density
  *specificheat
  *initialconditions, type=TEMPERATURE
  *initialconditions, type=TEMPERATURE
  *solidsection, elset=ASSEMBLY_SZYNA2D-1_CALA, material=STAL
  *solidsection, elset=ASSEMBLY_SZYNA2D-1_CALA, material=STAL
  *surface, type=ELEMENT, name=ASSEMBLY_SZYNA2D-1_GLOWKA
  *surface, type=ELEMENT, name=ASSEMBLY_SZYNA2D-1_STOPKA
  *surface, type=ELEMENT, name=ASSEMBLY_CALOSC
  *output, field
  *output, history, frequency=0
  *elementoutput, directions=YES
  *initialconditions, type=TEMPERATURE
  *output, field
  *output, history, frequency=0
  *elementoutput, directions=YES
  *initialconditions, type=TEMPERATURE
  *output, field
  *output, history, frequency=0
  *elementoutput, directions=YES
  *amplitude, name="K= 800"
  *Step, name=Chlodzenie, nlgeom=NO, inc=10000
  *output, field
  *output, history, frequency=0
  *Step, name=Chlodzenie, nlgeom=NO, inc=10000
  *Step, name=Chlodzenie, nlgeom=NO, inc=10000
  Cooling                                                                         
  *heattransfer, end=PERIOD, deltmx=1000000
  *sfilm, filmamplitude="K= 800"
  *sfilm
  *sradiate
  *output, field
  *nodeoutput
  *elementoutput, directions=YES
  *nodeprint, nset=ASSEMBLY_COOLINGPOINT, frequency=1
  *output, history, frequency=0
  *endstep
  *Step, name=Chlodzenie, nlgeom=NO, inc=10000
  *heattransfer, end=PERIOD, deltmx=1000000
  *endstep


                              E L E M E N T,   N O D E,   A N D   S U R F A C E   M A P S


**NOTE: This section may not include complete information about
        members of sets and surfaces. Use *PREPRINT, MODEL=YES 
        in order to get the set and surface members printed    
        under the following sections:                          
            - E L E M E N T   S E T S                          
            - N O D E   S E T S                                
            - S U R F A C E   D E F I N I T I O N S .          


Assembly name: ASSEMBLY
Number of instances: 1

ASSEMBLY LEVEL
  node sets:
    COOLINGPOINT:
      instance name: SZYNA2D-1
      number of nodes: 1
      nodes: 
        365

  element sets:




  Surfaces:
    CALOSC:
      type: element based
      instance name: SZYNA2D-1
        face id:  S2
        number of elements: 77
        elements:
          8 27 31 33 45 47 49 57 59 66 67 80 81 82 83 86 87 88 89 92 93
          103 105 119 122 123 130 131 155 159 162 172 173 180 196 198
          207 236 257 259 363 364 365 367 368 369 370 371 372 374 384
          389 390 396 398 409 416 424 428 431 434 436 437 439 440 443
          446 448 450 454 455 467 499 752 757 758 759
        face id:  S3
        number of elements: 22
        elements:
          18 19 31 34 52 85 140 144 145 220 227 228 229 284 286 304 341
          375 376 397 418 755
        face id:  S4
        number of elements: 80
        elements:
          29 30 36 37 39 40 41 42 44 61 73 77 91 95 98 100 101 102 108
          109 110 113 114 115 117 118 121 126 137 138 139 143 158 163
          165 168 170 171 191 192 195 197 206 208 211 219 239 243 251
          264 272 273 279 303 326 340 342 344 346 349 350 352 353 354
          356 357 359 362 366 373 380 381 382 383 385 388 392 393 502
          756
        face id:  S1
        number of elements: 21
        elements:
          51 129 154 156 157 190 194 221 223 231 308 358 360 361 377 391
          399 406 410 423 465

INSTANCE LEVEL
  node sets:
    Instance name: SZYNA2D-1
      node set name: CALA
        number of nodes: 864
        nodes: 
          1 2 3 4 5 6 7 8 9 10 11 12 13 14 15 16 17 18 19 20 21 22 23 24
          25 26 27 28 29 30 31 32 33 34 35 36 37 38 39 40 41 42 43 44 45
          46 47 48 49 50 51 52 53 54 55 56 57 58 59 60 61 62 63 64 65 66
          67 68 69 70 71 72 73 74 75 76 77 78 79 80 81 82 83 84 85 86 87
          88 89 90 91 92 93 94 95 96 97 98 99 100 101 102 103 104 105
          106 107 108 109 110 111 112 113 114 115 116 117 118 119 120
          121 122 123 124 125 126 127 128 129 130 131 132 133 134 135
          136 137 138 139 140 141 142 143 144 145 146 147 148 149 150
          151 152 153 154 155 156 157 158 159 160 161 162 163 164 165
          166 167 168 169 170 171 172 173 174 175 176 177 178 179 180
          181 182 183 184 185 186 187 188 189 190 191 192 193 194 195
          196 197 198 199 200 201 202 203 204 205 206 207 208 209 210
          211 212 213 214 215 216 217 218 219 220 221 222 223 224 225
          226 227 228 229 230 231 232 233 234 235 236 237 238 239 240
          241 242 243 244 245 246 247 248 249 250 251 252 253 254 255
          256 257 258 259 260 261 262 263 264 265 266 267 268 269 270
          271 272 273 274 275 276 277 278 279 280 281 282 283 284 285
          286 287 288 289 290 291 292 293 294 295 296 297 298 299 300
          301 302 303 304 305 306 307 308 309 310 311 312 313 314 315
          316 317 318 319 320 321 322 323 324 325 326 327 328 329 330
          331 332 333 334 335 336 337 338 339 340 341 342 343 344 345
          346 347 348 349 350 351 352 353 354 355 356 357 358 359 360
          361 362 363 364 365 366 367 368 369 370 371 372 373 374 375
          376 377 378 379 380 381 382 383 384 385 386 387 388 389 390
          391 392 393 394 395 396 397 398 399 400 401 402 403 404 405
          406 407 408 409 410 411 412 413 414 415 416 417 418 419 420
          421 422 423 424 425 426 427 428 429 430 431 432 433 434 435
          436 437 438 439 440 441 442 443 444 445 446 447 448 449 450
          451 452 453 454 455 456 457 458 459 460 461 462 463 464 465
          466 467 468 469 470 471 472 473 474 475 476 477 478 479 480
          481 482 483 484 485 486 487 488 489 490 491 492 493 494 495
          496 497 498 499 500 501 502 503 504 505 506 507 508 509 510
          511 512 513 514 515 516 517 518 519 520 521 522 523 524 525
          526 527 528 529 530 531 532 533 534 535 536 537 538 539 540
          541 542 543 544 545 546 547 548 549 550 551 552 553 554 555
          556 557 558 559 560 561 562 563 564 565 566 567 568 569 570
          571 572 573 574 575 576 577 578 579 580 581 582 583 584 585
          586 587 588 589 590 591 592 593 594 595 596 597 598 599 600
          601 602 603 604 605 606 607 608 609 610 611 612 613 614 615
          616 617 618 619 620 621 622 623 624 625 626 627 628 629 630
          631 632 633 634 635 636 637 638 639 640 641 642 643 644 645
          646 647 648 649 650 651 652 653 654 655 656 657 658 659 660
          661 662 663 664 665 666 667 668 669 670 671 672 673 674 675
          676 677 678 679 680 681 682 683 684 685 686 687 688 689 690
          691 692 693 694 695 696 697 698 699 700 701 702 703 704 705
          706 707 708 709 710 711 712 713 714 715 716 717 718 719 720
          721 722 723 724 725 726 727 728 729 730 731 732 733 734 735
          736 737 738 739 740 741 742 743 744 745 746 747 748 749 750
          751 752 753 754 755 756 757 758 759 760 761 762 763 764 765
          766 767 768 769 770 771 772 773 774 775 776 777 778 779 780
          781 782 783 784 785 786 787 788 789 790 791 792 793 794 795
          796 797 798 799 800 801 802 803 804 805 806 807 808 809 810
          811 812 813 814 815 816 817 818 819 820 821 822 823 824 825
          826 827 828 829 830 831 832 833 834 835 836 837 838 839 840
          841 842 843 844 845 846 847 848 849 850 851 852 853 854 855
          856 857 858 859 860 861 862 863 864

  element sets:
    Instance name: SZYNA2D-1
      element set name: CALA
        number of elements: 776
        elements: 
          1 2 3 4 5 6 7 8 9 10 11 12 13 14 15 16 17 18 19 20 21 22 23 24
          25 26 27 28 29 30 31 32 33 34 35 36 37 38 39 40 41 42 43 44 45
          46 47 48 49 50 51 52 53 54 55 56 57 58 59 60 61 62 63 64 65 66
          67 68 69 70 71 72 73 74 75 76 77 78 79 80 81 82 83 84 85 86 87
          88 89 90 91 92 93 94 95 96 97 98 99 100 101 102 103 104 105
          106 107 108 109 110 111 112 113 114 115 116 117 118 119 120
          121 122 123 124 125 126 127 128 129 130 131 132 133 134 135
          136 137 138 139 140 141 142 143 144 145 146 147 148 149 150
          151 152 153 154 155 156 157 158 159 160 161 162 163 164 165
          166 167 168 169 170 171 172 173 174 175 176 177 178 179 180
          181 182 183 184 185 186 187 188 189 190 191 192 193 194 195
          196 197 198 199 200 201 202 203 204 205 206 207 208 209 210
          211 212 213 214 215 216 217 218 219 220 221 222 223 224 225
          226 227 228 229 230 231 232 233 234 235 236 237 238 239 240
          241 242 243 244 245 246 247 248 249 250 251 252 253 254 255
          256 257 258 259 260 261 262 263 264 265 266 267 268 269 270
          271 272 273 274 275 276 277 278 279 280 281 282 283 284 285
          286 287 288 289 290 291 292 293 294 295 296 297 298 299 300
          301 302 303 304 305 306 307 308 309 310 311 312 313 314 315
          316 317 318 319 320 321 322 323 324 325 326 327 328 329 330
          331 332 333 334 335 336 337 338 339 340 341 342 343 344 345
          346 347 348 349 350 351 352 353 354 355 356 357 358 359 360
          361 362 363 364 365 366 367 368 369 370 371 372 373 374 375
          376 377 378 379 380 381 382 383 384 385 386 387 388 389 390
          391 392 393 394 395 396 397 398 399 400 401 402 403 404 405
          406 407 408 409 410 411 412 413 414 415 416 417 418 419 420
          421 422 423 424 425 426 427 428 429 430 431 432 433 434 435
          436 437 438 439 440 441 442 443 444 445 446 447 448 449 450
          451 452 453 454 455 456 457 458 459 460 461 462 463 464 465
          466 467 468 469 470 471 472 473 474 475 476 477 478 479 480
          481 482 483 484 485 486 487 488 489 490 491 492 493 494 495
          496 497 498 499 500 501 502 503 504 505 506 507 508 509 510
          511 512 513 514 515 516 517 518 519 520 521 522 523 524 525
          526 527 528 529 530 531 532 533 534 535 536 537 538 539 540
          541 542 543 544 545 546 547 548 549 550 551 552 553 554 555
          556 557 558 559 560 561 562 563 564 565 566 567 568 569 570
          571 572 573 574 575 576 577 578 579 580 581 582 583 584 585
          586 587 588 589 590 591 592 593 594 595 596 597 598 599 600
          601 602 603 604 605 606 607 608 609 610 611 612 613 614 615
          616 617 618 619 620 621 622 623 624 625 626 627 628 629 630
          631 632 633 634 635 636 637 638 639 640 641 642 643 644 645
          646 647 648 649 650 651 652 653 654 655 656 657 658 659 660
          661 662 663 664 665 666 667 668 669 670 671 672 673 674 675
          676 677 678 679 680 681 682 683 684 685 686 687 688 689 690
          691 692 693 694 695 696 697 698 699 700 701 702 703 704 705
          706 707 708 709 710 711 712 713 714 715 716 717 718 719 720
          721 722 723 724 725 726 727 728 729 730 731 732 733 734 735
          736 737 738 739 740 741 742 743 744 745 746 747 748 749 750
          751 752 753 754 755 756 757 758 759 760 761 762 763 764 765
          766 767 768 769 770 771 772 773 774 775 776

  Surfaces:
    Instance name: SZYNA2D-1
      surface name: GLOWKA
      type: element based
        face id = S1
        number of elements: 6
        elements:
          154 156 157 190 194 377
        face id = S2
        number of elements: 14
        elements:
          8 155 159 162 172 173 384 424 428 431 434 436 437 759
        face id = S4
        number of elements: 19
        elements:
          137 138 139 143 158 163 165 168 170 171 191 192 206 326 380
          381 382 383 385
        face id = S3
        number of elements: 3
        elements:
          140 144 145
      surface name: STOPKA
      type: element based
        face id = S2
        number of elements: 63
        elements:
          27 31 33 45 47 49 57 59 66 67 80 81 82 83 86 87 88 89 92 93
          103 105 119 122 123 130 131 180 196 198 207 236 257 259 363
          364 365 367 368 369 370 371 372 374 389 390 396 398 409 416
          439 440 443 446 448 450 454 455 467 499 752 757 758
        face id = S3
        number of elements: 19
        elements:
          18 19 31 34 52 85 220 227 228 229 284 286 304 341 375 376 397
          418 755
        face id = S4
        number of elements: 61
        elements:
          29 30 36 37 39 40 41 42 44 61 73 77 91 95 98 100 101 102 108
          109 110 113 114 115 117 118 121 126 195 197 208 211 219 239
          243 251 264 272 273 279 303 340 342 344 346 349 350 352 353
          354 356 357 359 362 366 373 388 392 393 502 756
        face id = S1
        number of elements: 15
        elements:
          51 129 221 223 231 308 358 360 361 391 399 406 410 423 465

GLOBAL TO LOCAL NODE AND ELEMENT MAPS
  Global     Local      
  node       node       
  number     number     
                        Instance name                                   
   1          1         SZYNA2D-1                                       
   2          2         SZYNA2D-1                                       
   3          3         SZYNA2D-1                                       
   4          4         SZYNA2D-1                                       
   5          5         SZYNA2D-1                                       
   6          6         SZYNA2D-1                                       
   7          7         SZYNA2D-1                                       
   8          8         SZYNA2D-1                                       
   9          9         SZYNA2D-1                                       
   10         10        SZYNA2D-1                                       
   11         11        SZYNA2D-1                                       
   12         12        SZYNA2D-1                                       
   13         13        SZYNA2D-1                                       
   14         14        SZYNA2D-1                                       
   15         15        SZYNA2D-1                                       
   16         16        SZYNA2D-1                                       
   17         17        SZYNA2D-1                                       
   18         18        SZYNA2D-1                                       
   19         19        SZYNA2D-1                                       
   20         20        SZYNA2D-1                                       
   21         21        SZYNA2D-1                                       
   22         22        SZYNA2D-1                                       
   23         23        SZYNA2D-1                                       
   24         24        SZYNA2D-1                                       
   25         25        SZYNA2D-1                                       
   26         26        SZYNA2D-1                                       
   27         27        SZYNA2D-1                                       
   28         28        SZYNA2D-1                                       
   29         29        SZYNA2D-1                                       
   30         30        SZYNA2D-1                                       
   31         31        SZYNA2D-1                                       
   32         32        SZYNA2D-1                                       
   33         33        SZYNA2D-1                                       
   34         34        SZYNA2D-1                                       
   35         35        SZYNA2D-1                                       
   36         36        SZYNA2D-1                                       
   37         37        SZYNA2D-1                                       
   38         38        SZYNA2D-1                                       
   39         39        SZYNA2D-1                                       
   40         40        SZYNA2D-1                                       
   41         41        SZYNA2D-1                                       
   42         42        SZYNA2D-1                                       
   43         43        SZYNA2D-1                                       
   44         44        SZYNA2D-1                                       
   45         45        SZYNA2D-1                                       
   46         46        SZYNA2D-1                                       
   47         47        SZYNA2D-1                                       
   48         48        SZYNA2D-1                                       
   49         49        SZYNA2D-1                                       
   50         50        SZYNA2D-1                                       
   51         51        SZYNA2D-1                                       
   52         52        SZYNA2D-1                                       
   53         53        SZYNA2D-1                                       
   54         54        SZYNA2D-1                                       
   55         55        SZYNA2D-1                                       
   56         56        SZYNA2D-1                                       
   57         57        SZYNA2D-1                                       
   58         58        SZYNA2D-1                                       
   59         59        SZYNA2D-1                                       
   60         60        SZYNA2D-1                                       
   61         61        SZYNA2D-1                                       
   62         62        SZYNA2D-1                                       
   63         63        SZYNA2D-1                                       
   64         64        SZYNA2D-1                                       
   65         65        SZYNA2D-1                                       
   66         66        SZYNA2D-1                                       
   67         67        SZYNA2D-1                                       
   68         68        SZYNA2D-1                                       
   69         69        SZYNA2D-1                                       
   70         70        SZYNA2D-1                                       
   71         71        SZYNA2D-1                                       
   72         72        SZYNA2D-1                                       
   73         73        SZYNA2D-1                                       
   74         74        SZYNA2D-1                                       
   75         75        SZYNA2D-1                                       
   76         76        SZYNA2D-1                                       
   77         77        SZYNA2D-1                                       
   78         78        SZYNA2D-1                                       
   79         79        SZYNA2D-1                                       
   80         80        SZYNA2D-1                                       
   81         81        SZYNA2D-1                                       
   82         82        SZYNA2D-1                                       
   83         83        SZYNA2D-1                                       
   84         84        SZYNA2D-1                                       
   85         85        SZYNA2D-1                                       
   86         86        SZYNA2D-1                                       
   87         87        SZYNA2D-1                                       
   88         88        SZYNA2D-1                                       
   89         89        SZYNA2D-1                                       
   90         90        SZYNA2D-1                                       
   91         91        SZYNA2D-1                                       
   92         92        SZYNA2D-1                                       
   93         93        SZYNA2D-1                                       
   94         94        SZYNA2D-1                                       
   95         95        SZYNA2D-1                                       
   96         96        SZYNA2D-1                                       
   97         97        SZYNA2D-1                                       
   98         98        SZYNA2D-1                                       
   99         99        SZYNA2D-1                                       
   100        100       SZYNA2D-1                                       
   101        101       SZYNA2D-1                                       
   102        102       SZYNA2D-1                                       
   103        103       SZYNA2D-1                                       
   104        104       SZYNA2D-1                                       
   105        105       SZYNA2D-1                                       
   106        106       SZYNA2D-1                                       
   107        107       SZYNA2D-1                                       
   108        108       SZYNA2D-1                                       
   109        109       SZYNA2D-1                                       
   110        110       SZYNA2D-1                                       
   111        111       SZYNA2D-1                                       
   112        112       SZYNA2D-1                                       
   113        113       SZYNA2D-1                                       
   114        114       SZYNA2D-1                                       
   115        115       SZYNA2D-1                                       
   116        116       SZYNA2D-1                                       
   117        117       SZYNA2D-1                                       
   118        118       SZYNA2D-1                                       
   119        119       SZYNA2D-1                                       
   120        120       SZYNA2D-1                                       
   121        121       SZYNA2D-1                                       
   122        122       SZYNA2D-1                                       
   123        123       SZYNA2D-1                                       
   124        124       SZYNA2D-1                                       
   125        125       SZYNA2D-1                                       
   126        126       SZYNA2D-1                                       
   127        127       SZYNA2D-1                                       
   128        128       SZYNA2D-1                                       
   129        129       SZYNA2D-1                                       
   130        130       SZYNA2D-1                                       
   131        131       SZYNA2D-1                                       
   132        132       SZYNA2D-1                                       
   133        133       SZYNA2D-1                                       
   134        134       SZYNA2D-1                                       
   135        135       SZYNA2D-1                                       
   136        136       SZYNA2D-1                                       
   137        137       SZYNA2D-1                                       
   138        138       SZYNA2D-1                                       
   139        139       SZYNA2D-1                                       
   140        140       SZYNA2D-1                                       
   141        141       SZYNA2D-1                                       
   142        142       SZYNA2D-1                                       
   143        143       SZYNA2D-1                                       
   144        144       SZYNA2D-1                                       
   145        145       SZYNA2D-1                                       
   146        146       SZYNA2D-1                                       
   147        147       SZYNA2D-1                                       
   148        148       SZYNA2D-1                                       
   149        149       SZYNA2D-1                                       
   150        150       SZYNA2D-1                                       
   151        151       SZYNA2D-1                                       
   152        152       SZYNA2D-1                                       
   153        153       SZYNA2D-1                                       
   154        154       SZYNA2D-1                                       
   155        155       SZYNA2D-1                                       
   156        156       SZYNA2D-1                                       
   157        157       SZYNA2D-1                                       
   158        158       SZYNA2D-1                                       
   159        159       SZYNA2D-1                                       
   160        160       SZYNA2D-1                                       
   161        161       SZYNA2D-1                                       
   162        162       SZYNA2D-1                                       
   163        163       SZYNA2D-1                                       
   164        164       SZYNA2D-1                                       
   165        165       SZYNA2D-1                                       
   166        166       SZYNA2D-1                                       
   167        167       SZYNA2D-1                                       
   168        168       SZYNA2D-1                                       
   169        169       SZYNA2D-1                                       
   170        170       SZYNA2D-1                                       
   171        171       SZYNA2D-1                                       
   172        172       SZYNA2D-1                                       
   173        173       SZYNA2D-1                                       
   174        174       SZYNA2D-1                                       
   175        175       SZYNA2D-1                                       
   176        176       SZYNA2D-1                                       
   177        177       SZYNA2D-1                                       
   178        178       SZYNA2D-1                                       
   179        179       SZYNA2D-1                                       
   180        180       SZYNA2D-1                                       
   181        181       SZYNA2D-1                                       
   182        182       SZYNA2D-1                                       
   183        183       SZYNA2D-1                                       
   184        184       SZYNA2D-1                                       
   185        185       SZYNA2D-1                                       
   186        186       SZYNA2D-1                                       
   187        187       SZYNA2D-1                                       
   188        188       SZYNA2D-1                                       
   189        189       SZYNA2D-1                                       
   190        190       SZYNA2D-1                                       
   191        191       SZYNA2D-1                                       
   192        192       SZYNA2D-1                                       
   193        193       SZYNA2D-1                                       
   194        194       SZYNA2D-1                                       
   195        195       SZYNA2D-1                                       
   196        196       SZYNA2D-1                                       
   197        197       SZYNA2D-1                                       
   198        198       SZYNA2D-1                                       
   199        199       SZYNA2D-1                                       
   200        200       SZYNA2D-1                                       
   201        201       SZYNA2D-1                                       
   202        202       SZYNA2D-1                                       
   203        203       SZYNA2D-1                                       
   204        204       SZYNA2D-1                                       
   205        205       SZYNA2D-1                                       
   206        206       SZYNA2D-1                                       
   207        207       SZYNA2D-1                                       
   208        208       SZYNA2D-1                                       
   209        209       SZYNA2D-1                                       
   210        210       SZYNA2D-1                                       
   211        211       SZYNA2D-1                                       
   212        212       SZYNA2D-1                                       
   213        213       SZYNA2D-1                                       
   214        214       SZYNA2D-1                                       
   215        215       SZYNA2D-1                                       
   216        216       SZYNA2D-1                                       
   217        217       SZYNA2D-1                                       
   218        218       SZYNA2D-1                                       
   219        219       SZYNA2D-1                                       
   220        220       SZYNA2D-1                                       
   221        221       SZYNA2D-1                                       
   222        222       SZYNA2D-1                                       
   223        223       SZYNA2D-1                                       
   224        224       SZYNA2D-1                                       
   225        225       SZYNA2D-1                                       
   226        226       SZYNA2D-1                                       
   227        227       SZYNA2D-1                                       
   228        228       SZYNA2D-1                                       
   229        229       SZYNA2D-1                                       
   230        230       SZYNA2D-1                                       
   231        231       SZYNA2D-1                                       
   232        232       SZYNA2D-1                                       
   233        233       SZYNA2D-1                                       
   234        234       SZYNA2D-1                                       
   235        235       SZYNA2D-1                                       
   236        236       SZYNA2D-1                                       
   237        237       SZYNA2D-1                                       
   238        238       SZYNA2D-1                                       
   239        239       SZYNA2D-1                                       
   240        240       SZYNA2D-1                                       
   241        241       SZYNA2D-1                                       
   242        242       SZYNA2D-1                                       
   243        243       SZYNA2D-1                                       
   244        244       SZYNA2D-1                                       
   245        245       SZYNA2D-1                                       
   246        246       SZYNA2D-1                                       
   247        247       SZYNA2D-1                                       
   248        248       SZYNA2D-1                                       
   249        249       SZYNA2D-1                                       
   250        250       SZYNA2D-1                                       
   251        251       SZYNA2D-1                                       
   252        252       SZYNA2D-1                                       
   253        253       SZYNA2D-1                                       
   254        254       SZYNA2D-1                                       
   255        255       SZYNA2D-1                                       
   256        256       SZYNA2D-1                                       
   257        257       SZYNA2D-1                                       
   258        258       SZYNA2D-1                                       
   259        259       SZYNA2D-1                                       
   260        260       SZYNA2D-1                                       
   261        261       SZYNA2D-1                                       
   262        262       SZYNA2D-1                                       
   263        263       SZYNA2D-1                                       
   264        264       SZYNA2D-1                                       
   265        265       SZYNA2D-1                                       
   266        266       SZYNA2D-1                                       
   267        267       SZYNA2D-1                                       
   268        268       SZYNA2D-1                                       
   269        269       SZYNA2D-1                                       
   270        270       SZYNA2D-1                                       
   271        271       SZYNA2D-1                                       
   272        272       SZYNA2D-1                                       
   273        273       SZYNA2D-1                                       
   274        274       SZYNA2D-1                                       
   275        275       SZYNA2D-1                                       
   276        276       SZYNA2D-1                                       
   277        277       SZYNA2D-1                                       
   278        278       SZYNA2D-1                                       
   279        279       SZYNA2D-1                                       
   280        280       SZYNA2D-1                                       
   281        281       SZYNA2D-1                                       
   282        282       SZYNA2D-1                                       
   283        283       SZYNA2D-1                                       
   284        284       SZYNA2D-1                                       
   285        285       SZYNA2D-1                                       
   286        286       SZYNA2D-1                                       
   287        287       SZYNA2D-1                                       
   288        288       SZYNA2D-1                                       
   289        289       SZYNA2D-1                                       
   290        290       SZYNA2D-1                                       
   291        291       SZYNA2D-1                                       
   292        292       SZYNA2D-1                                       
   293        293       SZYNA2D-1                                       
   294        294       SZYNA2D-1                                       
   295        295       SZYNA2D-1                                       
   296        296       SZYNA2D-1                                       
   297        297       SZYNA2D-1                                       
   298        298       SZYNA2D-1                                       
   299        299       SZYNA2D-1                                       
   300        300       SZYNA2D-1                                       
   301        301       SZYNA2D-1                                       
   302        302       SZYNA2D-1                                       
   303        303       SZYNA2D-1                                       
   304        304       SZYNA2D-1                                       
   305        305       SZYNA2D-1                                       
   306        306       SZYNA2D-1                                       
   307        307       SZYNA2D-1                                       
   308        308       SZYNA2D-1                                       
   309        309       SZYNA2D-1                                       
   310        310       SZYNA2D-1                                       
   311        311       SZYNA2D-1                                       
   312        312       SZYNA2D-1                                       
   313        313       SZYNA2D-1                                       
   314        314       SZYNA2D-1                                       
   315        315       SZYNA2D-1                                       
   316        316       SZYNA2D-1                                       
   317        317       SZYNA2D-1                                       
   318        318       SZYNA2D-1                                       
   319        319       SZYNA2D-1                                       
   320        320       SZYNA2D-1                                       
   321        321       SZYNA2D-1                                       
   322        322       SZYNA2D-1                                       
   323        323       SZYNA2D-1                                       
   324        324       SZYNA2D-1                                       
   325        325       SZYNA2D-1                                       
   326        326       SZYNA2D-1                                       
   327        327       SZYNA2D-1                                       
   328        328       SZYNA2D-1                                       
   329        329       SZYNA2D-1                                       
   330        330       SZYNA2D-1                                       
   331        331       SZYNA2D-1                                       
   332        332       SZYNA2D-1                                       
   333        333       SZYNA2D-1                                       
   334        334       SZYNA2D-1                                       
   335        335       SZYNA2D-1                                       
   336        336       SZYNA2D-1                                       
   337        337       SZYNA2D-1                                       
   338        338       SZYNA2D-1                                       
   339        339       SZYNA2D-1                                       
   340        340       SZYNA2D-1                                       
   341        341       SZYNA2D-1                                       
   342        342       SZYNA2D-1                                       
   343        343       SZYNA2D-1                                       
   344        344       SZYNA2D-1                                       
   345        345       SZYNA2D-1                                       
   346        346       SZYNA2D-1                                       
   347        347       SZYNA2D-1                                       
   348        348       SZYNA2D-1                                       
   349        349       SZYNA2D-1                                       
   350        350       SZYNA2D-1                                       
   351        351       SZYNA2D-1                                       
   352        352       SZYNA2D-1                                       
   353        353       SZYNA2D-1                                       
   354        354       SZYNA2D-1                                       
   355        355       SZYNA2D-1                                       
   356        356       SZYNA2D-1                                       
   357        357       SZYNA2D-1                                       
   358        358       SZYNA2D-1                                       
   359        359       SZYNA2D-1                                       
   360        360       SZYNA2D-1                                       
   361        361       SZYNA2D-1                                       
   362        362       SZYNA2D-1                                       
   363        363       SZYNA2D-1                                       
   364        364       SZYNA2D-1                                       
   365        365       SZYNA2D-1                                       
   366        366       SZYNA2D-1                                       
   367        367       SZYNA2D-1                                       
   368        368       SZYNA2D-1                                       
   369        369       SZYNA2D-1                                       
   370        370       SZYNA2D-1                                       
   371        371       SZYNA2D-1                                       
   372        372       SZYNA2D-1                                       
   373        373       SZYNA2D-1                                       
   374        374       SZYNA2D-1                                       
   375        375       SZYNA2D-1                                       
   376        376       SZYNA2D-1                                       
   377        377       SZYNA2D-1                                       
   378        378       SZYNA2D-1                                       
   379        379       SZYNA2D-1                                       
   380        380       SZYNA2D-1                                       
   381        381       SZYNA2D-1                                       
   382        382       SZYNA2D-1                                       
   383        383       SZYNA2D-1                                       
   384        384       SZYNA2D-1                                       
   385        385       SZYNA2D-1                                       
   386        386       SZYNA2D-1                                       
   387        387       SZYNA2D-1                                       
   388        388       SZYNA2D-1                                       
   389        389       SZYNA2D-1                                       
   390        390       SZYNA2D-1                                       
   391        391       SZYNA2D-1                                       
   392        392       SZYNA2D-1                                       
   393        393       SZYNA2D-1                                       
   394        394       SZYNA2D-1                                       
   395        395       SZYNA2D-1                                       
   396        396       SZYNA2D-1                                       
   397        397       SZYNA2D-1                                       
   398        398       SZYNA2D-1                                       
   399        399       SZYNA2D-1                                       
   400        400       SZYNA2D-1                                       
   401        401       SZYNA2D-1                                       
   402        402       SZYNA2D-1                                       
   403        403       SZYNA2D-1                                       
   404        404       SZYNA2D-1                                       
   405        405       SZYNA2D-1                                       
   406        406       SZYNA2D-1                                       
   407        407       SZYNA2D-1                                       
   408        408       SZYNA2D-1                                       
   409        409       SZYNA2D-1                                       
   410        410       SZYNA2D-1                                       
   411        411       SZYNA2D-1                                       
   412        412       SZYNA2D-1                                       
   413        413       SZYNA2D-1                                       
   414        414       SZYNA2D-1                                       
   415        415       SZYNA2D-1                                       
   416        416       SZYNA2D-1                                       
   417        417       SZYNA2D-1                                       
   418        418       SZYNA2D-1                                       
   419        419       SZYNA2D-1                                       
   420        420       SZYNA2D-1                                       
   421        421       SZYNA2D-1                                       
   422        422       SZYNA2D-1                                       
   423        423       SZYNA2D-1                                       
   424        424       SZYNA2D-1                                       
   425        425       SZYNA2D-1                                       
   426        426       SZYNA2D-1                                       
   427        427       SZYNA2D-1                                       
   428        428       SZYNA2D-1                                       
   429        429       SZYNA2D-1                                       
   430        430       SZYNA2D-1                                       
   431        431       SZYNA2D-1                                       
   432        432       SZYNA2D-1                                       
   433        433       SZYNA2D-1                                       
   434        434       SZYNA2D-1                                       
   435        435       SZYNA2D-1                                       
   436        436       SZYNA2D-1                                       
   437        437       SZYNA2D-1                                       
   438        438       SZYNA2D-1                                       
   439        439       SZYNA2D-1                                       
   440        440       SZYNA2D-1                                       
   441        441       SZYNA2D-1                                       
   442        442       SZYNA2D-1                                       
   443        443       SZYNA2D-1                                       
   444        444       SZYNA2D-1                                       
   445        445       SZYNA2D-1                                       
   446        446       SZYNA2D-1                                       
   447        447       SZYNA2D-1                                       
   448        448       SZYNA2D-1                                       
   449        449       SZYNA2D-1                                       
   450        450       SZYNA2D-1                                       
   451        451       SZYNA2D-1                                       
   452        452       SZYNA2D-1                                       
   453        453       SZYNA2D-1                                       
   454        454       SZYNA2D-1                                       
   455        455       SZYNA2D-1                                       
   456        456       SZYNA2D-1                                       
   457        457       SZYNA2D-1                                       
   458        458       SZYNA2D-1                                       
   459        459       SZYNA2D-1                                       
   460        460       SZYNA2D-1                                       
   461        461       SZYNA2D-1                                       
   462        462       SZYNA2D-1                                       
   463        463       SZYNA2D-1                                       
   464        464       SZYNA2D-1                                       
   465        465       SZYNA2D-1                                       
   466        466       SZYNA2D-1                                       
   467        467       SZYNA2D-1                                       
   468        468       SZYNA2D-1                                       
   469        469       SZYNA2D-1                                       
   470        470       SZYNA2D-1                                       
   471        471       SZYNA2D-1                                       
   472        472       SZYNA2D-1                                       
   473        473       SZYNA2D-1                                       
   474        474       SZYNA2D-1                                       
   475        475       SZYNA2D-1                                       
   476        476       SZYNA2D-1                                       
   477        477       SZYNA2D-1                                       
   478        478       SZYNA2D-1                                       
   479        479       SZYNA2D-1                                       
   480        480       SZYNA2D-1                                       
   481        481       SZYNA2D-1                                       
   482        482       SZYNA2D-1                                       
   483        483       SZYNA2D-1                                       
   484        484       SZYNA2D-1                                       
   485        485       SZYNA2D-1                                       
   486        486       SZYNA2D-1                                       
   487        487       SZYNA2D-1                                       
   488        488       SZYNA2D-1                                       
   489        489       SZYNA2D-1                                       
   490        490       SZYNA2D-1                                       
   491        491       SZYNA2D-1                                       
   492        492       SZYNA2D-1                                       
   493        493       SZYNA2D-1                                       
   494        494       SZYNA2D-1                                       
   495        495       SZYNA2D-1                                       
   496        496       SZYNA2D-1                                       
   497        497       SZYNA2D-1                                       
   498        498       SZYNA2D-1                                       
   499        499       SZYNA2D-1                                       
   500        500       SZYNA2D-1                                       
   501        501       SZYNA2D-1                                       
   502        502       SZYNA2D-1                                       
   503        503       SZYNA2D-1                                       
   504        504       SZYNA2D-1                                       
   505        505       SZYNA2D-1                                       
   506        506       SZYNA2D-1                                       
   507        507       SZYNA2D-1                                       
   508        508       SZYNA2D-1                                       
   509        509       SZYNA2D-1                                       
   510        510       SZYNA2D-1                                       
   511        511       SZYNA2D-1                                       
   512        512       SZYNA2D-1                                       
   513        513       SZYNA2D-1                                       
   514        514       SZYNA2D-1                                       
   515        515       SZYNA2D-1                                       
   516        516       SZYNA2D-1                                       
   517        517       SZYNA2D-1                                       
   518        518       SZYNA2D-1                                       
   519        519       SZYNA2D-1                                       
   520        520       SZYNA2D-1                                       
   521        521       SZYNA2D-1                                       
   522        522       SZYNA2D-1                                       
   523        523       SZYNA2D-1                                       
   524        524       SZYNA2D-1                                       
   525        525       SZYNA2D-1                                       
   526        526       SZYNA2D-1                                       
   527        527       SZYNA2D-1                                       
   528        528       SZYNA2D-1                                       
   529        529       SZYNA2D-1                                       
   530        530       SZYNA2D-1                                       
   531        531       SZYNA2D-1                                       
   532        532       SZYNA2D-1                                       
   533        533       SZYNA2D-1                                       
   534        534       SZYNA2D-1                                       
   535        535       SZYNA2D-1                                       
   536        536       SZYNA2D-1                                       
   537        537       SZYNA2D-1                                       
   538        538       SZYNA2D-1                                       
   539        539       SZYNA2D-1                                       
   540        540       SZYNA2D-1                                       
   541        541       SZYNA2D-1                                       
   542        542       SZYNA2D-1                                       
   543        543       SZYNA2D-1                                       
   544        544       SZYNA2D-1                                       
   545        545       SZYNA2D-1                                       
   546        546       SZYNA2D-1                                       
   547        547       SZYNA2D-1                                       
   548        548       SZYNA2D-1                                       
   549        549       SZYNA2D-1                                       
   550        550       SZYNA2D-1                                       
   551        551       SZYNA2D-1                                       
   552        552       SZYNA2D-1                                       
   553        553       SZYNA2D-1                                       
   554        554       SZYNA2D-1                                       
   555        555       SZYNA2D-1                                       
   556        556       SZYNA2D-1                                       
   557        557       SZYNA2D-1                                       
   558        558       SZYNA2D-1                                       
   559        559       SZYNA2D-1                                       
   560        560       SZYNA2D-1                                       
   561        561       SZYNA2D-1                                       
   562        562       SZYNA2D-1                                       
   563        563       SZYNA2D-1                                       
   564        564       SZYNA2D-1                                       
   565        565       SZYNA2D-1                                       
   566        566       SZYNA2D-1                                       
   567        567       SZYNA2D-1                                       
   568        568       SZYNA2D-1                                       
   569        569       SZYNA2D-1                                       
   570        570       SZYNA2D-1                                       
   571        571       SZYNA2D-1                                       
   572        572       SZYNA2D-1                                       
   573        573       SZYNA2D-1                                       
   574        574       SZYNA2D-1                                       
   575        575       SZYNA2D-1                                       
   576        576       SZYNA2D-1                                       
   577        577       SZYNA2D-1                                       
   578        578       SZYNA2D-1                                       
   579        579       SZYNA2D-1                                       
   580        580       SZYNA2D-1                                       
   581        581       SZYNA2D-1                                       
   582        582       SZYNA2D-1                                       
   583        583       SZYNA2D-1                                       
   584        584       SZYNA2D-1                                       
   585        585       SZYNA2D-1                                       
   586        586       SZYNA2D-1                                       
   587        587       SZYNA2D-1                                       
   588        588       SZYNA2D-1                                       
   589        589       SZYNA2D-1                                       
   590        590       SZYNA2D-1                                       
   591        591       SZYNA2D-1                                       
   592        592       SZYNA2D-1                                       
   593        593       SZYNA2D-1                                       
   594        594       SZYNA2D-1                                       
   595        595       SZYNA2D-1                                       
   596        596       SZYNA2D-1                                       
   597        597       SZYNA2D-1                                       
   598        598       SZYNA2D-1                                       
   599        599       SZYNA2D-1                                       
   600        600       SZYNA2D-1                                       
   601        601       SZYNA2D-1                                       
   602        602       SZYNA2D-1                                       
   603        603       SZYNA2D-1                                       
   604        604       SZYNA2D-1                                       
   605        605       SZYNA2D-1                                       
   606        606       SZYNA2D-1                                       
   607        607       SZYNA2D-1                                       
   608        608       SZYNA2D-1                                       
   609        609       SZYNA2D-1                                       
   610        610       SZYNA2D-1                                       
   611        611       SZYNA2D-1                                       
   612        612       SZYNA2D-1                                       
   613        613       SZYNA2D-1                                       
   614        614       SZYNA2D-1                                       
   615        615       SZYNA2D-1                                       
   616        616       SZYNA2D-1                                       
   617        617       SZYNA2D-1                                       
   618        618       SZYNA2D-1                                       
   619        619       SZYNA2D-1                                       
   620        620       SZYNA2D-1                                       
   621        621       SZYNA2D-1                                       
   622        622       SZYNA2D-1                                       
   623        623       SZYNA2D-1                                       
   624        624       SZYNA2D-1                                       
   625        625       SZYNA2D-1                                       
   626        626       SZYNA2D-1                                       
   627        627       SZYNA2D-1                                       
   628        628       SZYNA2D-1                                       
   629        629       SZYNA2D-1                                       
   630        630       SZYNA2D-1                                       
   631        631       SZYNA2D-1                                       
   632        632       SZYNA2D-1                                       
   633        633       SZYNA2D-1                                       
   634        634       SZYNA2D-1                                       
   635        635       SZYNA2D-1                                       
   636        636       SZYNA2D-1                                       
   637        637       SZYNA2D-1                                       
   638        638       SZYNA2D-1                                       
   639        639       SZYNA2D-1                                       
   640        640       SZYNA2D-1                                       
   641        641       SZYNA2D-1                                       
   642        642       SZYNA2D-1                                       
   643        643       SZYNA2D-1                                       
   644        644       SZYNA2D-1                                       
   645        645       SZYNA2D-1                                       
   646        646       SZYNA2D-1                                       
   647        647       SZYNA2D-1                                       
   648        648       SZYNA2D-1                                       
   649        649       SZYNA2D-1                                       
   650        650       SZYNA2D-1                                       
   651        651       SZYNA2D-1                                       
   652        652       SZYNA2D-1                                       
   653        653       SZYNA2D-1                                       
   654        654       SZYNA2D-1                                       
   655        655       SZYNA2D-1                                       
   656        656       SZYNA2D-1                                       
   657        657       SZYNA2D-1                                       
   658        658       SZYNA2D-1                                       
   659        659       SZYNA2D-1                                       
   660        660       SZYNA2D-1                                       
   661        661       SZYNA2D-1                                       
   662        662       SZYNA2D-1                                       
   663        663       SZYNA2D-1                                       
   664        664       SZYNA2D-1                                       
   665        665       SZYNA2D-1                                       
   666        666       SZYNA2D-1                                       
   667        667       SZYNA2D-1                                       
   668        668       SZYNA2D-1                                       
   669        669       SZYNA2D-1                                       
   670        670       SZYNA2D-1                                       
   671        671       SZYNA2D-1                                       
   672        672       SZYNA2D-1                                       
   673        673       SZYNA2D-1                                       
   674        674       SZYNA2D-1                                       
   675        675       SZYNA2D-1                                       
   676        676       SZYNA2D-1                                       
   677        677       SZYNA2D-1                                       
   678        678       SZYNA2D-1                                       
   679        679       SZYNA2D-1                                       
   680        680       SZYNA2D-1                                       
   681        681       SZYNA2D-1                                       
   682        682       SZYNA2D-1                                       
   683        683       SZYNA2D-1                                       
   684        684       SZYNA2D-1                                       
   685        685       SZYNA2D-1                                       
   686        686       SZYNA2D-1                                       
   687        687       SZYNA2D-1                                       
   688        688       SZYNA2D-1                                       
   689        689       SZYNA2D-1                                       
   690        690       SZYNA2D-1                                       
   691        691       SZYNA2D-1                                       
   692        692       SZYNA2D-1                                       
   693        693       SZYNA2D-1                                       
   694        694       SZYNA2D-1                                       
   695        695       SZYNA2D-1                                       
   696        696       SZYNA2D-1                                       
   697        697       SZYNA2D-1                                       
   698        698       SZYNA2D-1                                       
   699        699       SZYNA2D-1                                       
   700        700       SZYNA2D-1                                       
   701        701       SZYNA2D-1                                       
   702        702       SZYNA2D-1                                       
   703        703       SZYNA2D-1                                       
   704        704       SZYNA2D-1                                       
   705        705       SZYNA2D-1                                       
   706        706       SZYNA2D-1                                       
   707        707       SZYNA2D-1                                       
   708        708       SZYNA2D-1                                       
   709        709       SZYNA2D-1                                       
   710        710       SZYNA2D-1                                       
   711        711       SZYNA2D-1                                       
   712        712       SZYNA2D-1                                       
   713        713       SZYNA2D-1                                       
   714        714       SZYNA2D-1                                       
   715        715       SZYNA2D-1                                       
   716        716       SZYNA2D-1                                       
   717        717       SZYNA2D-1                                       
   718        718       SZYNA2D-1                                       
   719        719       SZYNA2D-1                                       
   720        720       SZYNA2D-1                                       
   721        721       SZYNA2D-1                                       
   722        722       SZYNA2D-1                                       
   723        723       SZYNA2D-1                                       
   724        724       SZYNA2D-1                                       
   725        725       SZYNA2D-1                                       
   726        726       SZYNA2D-1                                       
   727        727       SZYNA2D-1                                       
   728        728       SZYNA2D-1                                       
   729        729       SZYNA2D-1                                       
   730        730       SZYNA2D-1                                       
   731        731       SZYNA2D-1                                       
   732        732       SZYNA2D-1                                       
   733        733       SZYNA2D-1                                       
   734        734       SZYNA2D-1                                       
   735        735       SZYNA2D-1                                       
   736        736       SZYNA2D-1                                       
   737        737       SZYNA2D-1                                       
   738        738       SZYNA2D-1                                       
   739        739       SZYNA2D-1                                       
   740        740       SZYNA2D-1                                       
   741        741       SZYNA2D-1                                       
   742        742       SZYNA2D-1                                       
   743        743       SZYNA2D-1                                       
   744        744       SZYNA2D-1                                       
   745        745       SZYNA2D-1                                       
   746        746       SZYNA2D-1                                       
   747        747       SZYNA2D-1                                       
   748        748       SZYNA2D-1                                       
   749        749       SZYNA2D-1                                       
   750        750       SZYNA2D-1                                       
   751        751       SZYNA2D-1                                       
   752        752       SZYNA2D-1                                       
   753        753       SZYNA2D-1                                       
   754        754       SZYNA2D-1                                       
   755        755       SZYNA2D-1                                       
   756        756       SZYNA2D-1                                       
   757        757       SZYNA2D-1                                       
   758        758       SZYNA2D-1                                       
   759        759       SZYNA2D-1                                       
   760        760       SZYNA2D-1                                       
   761        761       SZYNA2D-1                                       
   762        762       SZYNA2D-1                                       
   763        763       SZYNA2D-1                                       
   764        764       SZYNA2D-1                                       
   765        765       SZYNA2D-1                                       
   766        766       SZYNA2D-1                                       
   767        767       SZYNA2D-1                                       
   768        768       SZYNA2D-1                                       
   769        769       SZYNA2D-1                                       
   770        770       SZYNA2D-1                                       
   771        771       SZYNA2D-1                                       
   772        772       SZYNA2D-1                                       
   773        773       SZYNA2D-1                                       
   774        774       SZYNA2D-1                                       
   775        775       SZYNA2D-1                                       
   776        776       SZYNA2D-1                                       
   777        777       SZYNA2D-1                                       
   778        778       SZYNA2D-1                                       
   779        779       SZYNA2D-1                                       
   780        780       SZYNA2D-1                                       
   781        781       SZYNA2D-1                                       
   782        782       SZYNA2D-1                                       
   783        783       SZYNA2D-1                                       
   784        784       SZYNA2D-1                                       
   785        785       SZYNA2D-1                                       
   786        786       SZYNA2D-1                                       
   787        787       SZYNA2D-1                                       
   788        788       SZYNA2D-1                                       
   789        789       SZYNA2D-1                                       
   790        790       SZYNA2D-1                                       
   791        791       SZYNA2D-1                                       
   792        792       SZYNA2D-1                                       
   793        793       SZYNA2D-1                                       
   794        794       SZYNA2D-1                                       
   795        795       SZYNA2D-1                                       
   796        796       SZYNA2D-1                                       
   797        797       SZYNA2D-1                                       
   798        798       SZYNA2D-1                                       
   799        799       SZYNA2D-1                                       
   800        800       SZYNA2D-1                                       
   801        801       SZYNA2D-1                                       
   802        802       SZYNA2D-1                                       
   803        803       SZYNA2D-1                                       
   804        804       SZYNA2D-1                                       
   805        805       SZYNA2D-1                                       
   806        806       SZYNA2D-1                                       
   807        807       SZYNA2D-1                                       
   808        808       SZYNA2D-1                                       
   809        809       SZYNA2D-1                                       
   810        810       SZYNA2D-1                                       
   811        811       SZYNA2D-1                                       
   812        812       SZYNA2D-1                                       
   813        813       SZYNA2D-1                                       
   814        814       SZYNA2D-1                                       
   815        815       SZYNA2D-1                                       
   816        816       SZYNA2D-1                                       
   817        817       SZYNA2D-1                                       
   818        818       SZYNA2D-1                                       
   819        819       SZYNA2D-1                                       
   820        820       SZYNA2D-1                                       
   821        821       SZYNA2D-1                                       
   822        822       SZYNA2D-1                                       
   823        823       SZYNA2D-1                                       
   824        824       SZYNA2D-1                                       
   825        825       SZYNA2D-1                                       
   826        826       SZYNA2D-1                                       
   827        827       SZYNA2D-1                                       
   828        828       SZYNA2D-1                                       
   829        829       SZYNA2D-1                                       
   830        830       SZYNA2D-1                                       
   831        831       SZYNA2D-1                                       
   832        832       SZYNA2D-1                                       
   833        833       SZYNA2D-1                                       
   834        834       SZYNA2D-1                                       
   835        835       SZYNA2D-1                                       
   836        836       SZYNA2D-1                                       
   837        837       SZYNA2D-1                                       
   838        838       SZYNA2D-1                                       
   839        839       SZYNA2D-1                                       
   840        840       SZYNA2D-1                                       
   841        841       SZYNA2D-1                                       
   842        842       SZYNA2D-1                                       
   843        843       SZYNA2D-1                                       
   844        844       SZYNA2D-1                                       
   845        845       SZYNA2D-1                                       
   846        846       SZYNA2D-1                                       
   847        847       SZYNA2D-1                                       
   848        848       SZYNA2D-1                                       
   849        849       SZYNA2D-1                                       
   850        850       SZYNA2D-1                                       
   851        851       SZYNA2D-1                                       
   852        852       SZYNA2D-1                                       
   853        853       SZYNA2D-1                                       
   854        854       SZYNA2D-1                                       
   855        855       SZYNA2D-1                                       
   856        856       SZYNA2D-1                                       
   857        857       SZYNA2D-1                                       
   858        858       SZYNA2D-1                                       
   859        859       SZYNA2D-1                                       
   860        860       SZYNA2D-1                                       
   861        861       SZYNA2D-1                                       
   862        862       SZYNA2D-1                                       
   863        863       SZYNA2D-1                                       
   864        864       SZYNA2D-1                                       

  Global     Local      
  element    element    
  number     number     
                        Instance name                                   
   1          1         SZYNA2D-1                                       
   2          2         SZYNA2D-1                                       
   3          3         SZYNA2D-1                                       
   4          4         SZYNA2D-1                                       
   5          5         SZYNA2D-1                                       
   6          6         SZYNA2D-1                                       
   7          7         SZYNA2D-1                                       
   8          8         SZYNA2D-1                                       
   9          9         SZYNA2D-1                                       
   10         10        SZYNA2D-1                                       
   11         11        SZYNA2D-1                                       
   12         12        SZYNA2D-1                                       
   13         13        SZYNA2D-1                                       
   14         14        SZYNA2D-1                                       
   15         15        SZYNA2D-1                                       
   16         16        SZYNA2D-1                                       
   17         17        SZYNA2D-1                                       
   18         18        SZYNA2D-1                                       
   19         19        SZYNA2D-1                                       
   20         20        SZYNA2D-1                                       
   21         21        SZYNA2D-1                                       
   22         22        SZYNA2D-1                                       
   23         23        SZYNA2D-1                                       
   24         24        SZYNA2D-1                                       
   25         25        SZYNA2D-1                                       
   26         26        SZYNA2D-1                                       
   27         27        SZYNA2D-1                                       
   28         28        SZYNA2D-1                                       
   29         29        SZYNA2D-1                                       
   30         30        SZYNA2D-1                                       
   31         31        SZYNA2D-1                                       
   32         32        SZYNA2D-1                                       
[...]
  
  
  
  
                                       N O D E   O U T P U T
  
  
  
  
   THE FOLLOWING TABLE IS PRINTED FOR NODES BELONGING TO NODE SET ASSEMBLY_COOLINGPOINT
  
       NODE FOOT-   NT11     
            NOTE
  
        365       327.4     

 MAXIMUM          327.4    
 AT NODE               365

 MINIMUM          327.4    
 AT NODE               365


                                INCREMENT   157 SUMMARY


 TIME INCREMENT COMPLETED   1.00    ,  FRACTION OF STEP COMPLETED  0.124    
 STEP TIME COMPLETED        149.    ,  TOTAL TIME COMPLETED         149.    
  
  
  
  
                                       N O D E   O U T P U T
  
  
  
  
   THE FOLLOWING TABLE IS PRINTED FOR NODES BELONGING TO NODE SET ASSEMBLY_COOLINGPOINT
  
       NODE FOOT-   NT11     
            NOTE
  
        365       325.9     

 MAXIMUM          325.9    
 AT NODE               365

 MINIMUM          325.9    
 AT NODE               365


                                INCREMENT   158 SUMMARY


 TIME INCREMENT COMPLETED   1.00    ,  FRACTION OF STEP COMPLETED  0.125    
 STEP TIME COMPLETED        150.    ,  TOTAL TIME COMPLETED         150.    
  
  
  
  
                                       N O D E   O U T P U T
  
  
  
  
   THE FOLLOWING TABLE IS PRINTED FOR NODES BELONGING TO NODE SET ASSEMBLY_COOLINGPOINT
  
       NODE FOOT-   NT11     
            NOTE
  
        365       324.4     

 MAXIMUM          324.4    
 AT NODE               365

 MINIMUM          324.4    
 AT NODE               365


                                INCREMENT   159 SUMMARY


 TIME INCREMENT COMPLETED   1.00    ,  FRACTION OF STEP COMPLETED  0.126    
 STEP TIME COMPLETED        151.    ,  TOTAL TIME COMPLETED         151.    
  
  
  
  
                                       N O D E   O U T P U T
  
  
  
  
   THE FOLLOWING TABLE IS PRINTED FOR NODES BELONGING TO NODE SET ASSEMBLY_COOLINGPOINT
  
       NODE FOOT-   NT11     
            NOTE
  
        365       322.9     

 MAXIMUM          322.9    
 AT NODE               365

 MINIMUM          322.9    
 AT NODE               365


                                INCREMENT   160 SUMMARY


 TIME INCREMENT COMPLETED   1.00    ,  FRACTION OF STEP COMPLETED  0.127    
 STEP TIME COMPLETED        152.    ,  TOTAL TIME COMPLETED         152.    
  
  
  
  
                                       N O D E   O U T P U T
  
  
  
  
   THE FOLLOWING TABLE IS PRINTED FOR NODES BELONGING TO NODE SET ASSEMBLY_COOLINGPOINT
  
       NODE FOOT-   NT11     
            NOTE
  
        365       321.4     

 MAXIMUM          321.4    
 AT NODE               365

 MINIMUM          321.4    
 AT NODE               365


                                INCREMENT   161 SUMMARY


 TIME INCREMENT COMPLETED   1.00    ,  FRACTION OF STEP COMPLETED  0.128    
 STEP TIME COMPLETED        153.    ,  TOTAL TIME COMPLETED         153.    
  
  
  
  
                                       N O D E   O U T P U T
  
  
  
  
   THE FOLLOWING TABLE IS PRINTED FOR NODES BELONGING TO NODE SET ASSEMBLY_COOLINGPOINT
  
       NODE FOOT-   NT11     
            NOTE
  
        365       320.0     

 MAXIMUM          320.0    
 AT NODE               365

 MINIMUM          320.0    
 AT NODE               365


                                INCREMENT   162 SUMMARY


 TIME INCREMENT COMPLETED   1.00    ,  FRACTION OF STEP COMPLETED  0.129    
 STEP TIME COMPLETED        154.    ,  TOTAL TIME COMPLETED         154.    
  
  
  
  
                                       N O D E   O U T P U T
  
  
  
  
   THE FOLLOWING TABLE IS PRINTED FOR NODES BELONGING TO NODE SET ASSEMBLY_COOLINGPOINT
  
       NODE FOOT-   NT11     
            NOTE
  
        365       318.5     

 MAXIMUM          318.5    
 AT NODE               365

 MINIMUM          318.5    
 AT NODE               365


                                INCREMENT   163 SUMMARY


 TIME INCREMENT COMPLETED   1.00    ,  FRACTION OF STEP COMPLETED  0.129    
 STEP TIME COMPLETED        155.    ,  TOTAL TIME COMPLETED         155.    
  
  
  
  
                                       N O D E   O U T P U T
  
  
  
  
   THE FOLLOWING TABLE IS PRINTED FOR NODES BELONGING TO NODE SET ASSEMBLY_COOLINGPOINT
  
       NODE FOOT-   NT11     
            NOTE
  
        365       317.1     

 MAXIMUM          317.1    
 AT NODE               365

 MINIMUM          317.1    
 AT NODE               365


                                INCREMENT   164 SUMMARY


 TIME INCREMENT COMPLETED   1.00    ,  FRACTION OF STEP COMPLETED  0.130    
 STEP TIME COMPLETED        156.    ,  TOTAL TIME COMPLETED         156.    
  
  
  
  
                                       N O D E   O U T P U T
  
  
  
  
   THE FOLLOWING TABLE IS PRINTED FOR NODES BELONGING TO NODE SET ASSEMBLY_COOLINGPOINT
  
       NODE FOOT-   NT11     
            NOTE
  
        365       315.6     

 MAXIMUM          315.6    
 AT NODE               365

 MINIMUM          315.6    
 AT NODE               365


                                INCREMENT   165 SUMMARY


 TIME INCREMENT COMPLETED   1.00    ,  FRACTION OF STEP COMPLETED  0.131    
 STEP TIME COMPLETED        157.    ,  TOTAL TIME COMPLETED         157.    
  
  
  
  
                                       N O D E   O U T P U T
  
  
  
  
   THE FOLLOWING TABLE IS PRINTED FOR NODES BELONGING TO NODE SET ASSEMBLY_COOLINGPOINT
  
       NODE FOOT-   NT11     
            NOTE
  
        365       314.2     

 MAXIMUM          314.2    
 AT NODE               365

 MINIMUM          314.2    
 AT NODE               365


                                INCREMENT   166 SUMMARY


 TIME INCREMENT COMPLETED   1.00    ,  FRACTION OF STEP COMPLETED  0.132    
 STEP TIME COMPLETED        158.    ,  TOTAL TIME COMPLETED         158.    
  
  
  
  
                                       N O D E   O U T P U T
  
  
  
  
   THE FOLLOWING TABLE IS PRINTED FOR NODES BELONGING TO NODE SET ASSEMBLY_COOLINGPOINT
  
       NODE FOOT-   NT11     
            NOTE
  
        365       312.8     

 MAXIMUM          312.8    
 AT NODE               365

 MINIMUM          312.8    
 AT NODE               365


                                INCREMENT   167 SUMMARY


 TIME INCREMENT COMPLETED   1.00    ,  FRACTION OF STEP COMPLETED  0.133    
 STEP TIME COMPLETED        159.    ,  TOTAL TIME COMPLETED         159.    
  
  
  
  
                                       N O D E   O U T P U T
  
  
  
  
   THE FOLLOWING TABLE IS PRINTED FOR NODES BELONGING TO NODE SET ASSEMBLY_COOLINGPOINT
  
       NODE FOOT-   NT11     
            NOTE
  
        365       311.4     

 MAXIMUM          311.4    
 AT NODE               365

 MINIMUM          311.4    
 AT NODE               365


                                INCREMENT   168 SUMMARY


 TIME INCREMENT COMPLETED   1.00    ,  FRACTION OF STEP COMPLETED  0.134    
 STEP TIME COMPLETED        160.    ,  TOTAL TIME COMPLETED         160.    
  
  
  
  
                                       N O D E   O U T P U T
  
  
  
  
   THE FOLLOWING TABLE IS PRINTED FOR NODES BELONGING TO NODE SET ASSEMBLY_COOLINGPOINT
  
       NODE FOOT-   NT11     
            NOTE
  
        365       310.0     

 MAXIMUM          310.0    
 AT NODE               365

 MINIMUM          310.0    
 AT NODE               365


                                INCREMENT   169 SUMMARY


 TIME INCREMENT COMPLETED   1.00    ,  FRACTION OF STEP COMPLETED  0.134    
 STEP TIME COMPLETED        161.    ,  TOTAL TIME COMPLETED         161.    
  
  
  
  
                                       N O D E   O U T P U T
  
  
  
  
   THE FOLLOWING TABLE IS PRINTED FOR NODES BELONGING TO NODE SET ASSEMBLY_COOLINGPOINT
  
       NODE FOOT-   NT11     
            NOTE
  
        365       308.6     

 MAXIMUM          308.6    
 AT NODE               365

 MINIMUM          308.6    
 AT NODE               365


                                INCREMENT   170 SUMMARY


 TIME INCREMENT COMPLETED   1.00    ,  FRACTION OF STEP COMPLETED  0.135    
 STEP TIME COMPLETED        162.    ,  TOTAL TIME COMPLETED         162.    
  
  
  
  
                                       N O D E   O U T P U T
  
  
  
  
   THE FOLLOWING TABLE IS PRINTED FOR NODES BELONGING TO NODE SET ASSEMBLY_COOLINGPOINT
  
       NODE FOOT-   NT11     
            NOTE
  
        365       307.3     

 MAXIMUM          307.3    
 AT NODE               365

 MINIMUM          307.3    
 AT NODE               365


                                INCREMENT   171 SUMMARY


 TIME INCREMENT COMPLETED   1.00    ,  FRACTION OF STEP COMPLETED  0.136    
 STEP TIME COMPLETED        163.    ,  TOTAL TIME COMPLETED         163.    
  
  
  
  
                                       N O D E   O U T P U T
  
  
  
  
   THE FOLLOWING TABLE IS PRINTED FOR NODES BELONGING TO NODE SET ASSEMBLY_COOLINGPOINT
  
       NODE FOOT-   NT11     
            NOTE
  
        365       305.9     

 MAXIMUM          305.9    
 AT NODE               365

 MINIMUM          305.9    
 AT NODE               365


                                INCREMENT   172 SUMMARY


 TIME INCREMENT COMPLETED   1.00    ,  FRACTION OF STEP COMPLETED  0.137    
 STEP TIME COMPLETED        164.    ,  TOTAL TIME COMPLETED         164.    
  
  
  
  
                                       N O D E   O U T P U T
  
  
  
  
   THE FOLLOWING TABLE IS PRINTED FOR NODES BELONGING TO NODE SET ASSEMBLY_COOLINGPOINT
  
       NODE FOOT-   NT11     
            NOTE
  
        365       304.5     

 MAXIMUM          304.5    
 AT NODE               365

 MINIMUM          304.5    
 AT NODE               365


                                INCREMENT   173 SUMMARY


 TIME INCREMENT COMPLETED   1.00    ,  FRACTION OF STEP COMPLETED  0.138    
 STEP TIME COMPLETED        165.    ,  TOTAL TIME COMPLETED         165.    
  
  
  
  
                                       N O D E   O U T P U T
  
  
  
  
   THE FOLLOWING TABLE IS PRINTED FOR NODES BELONGING TO NODE SET ASSEMBLY_COOLINGPOINT
  
       NODE FOOT-   NT11     
            NOTE
  
        365       303.2     

 MAXIMUM          303.2    
 AT NODE               365

 MINIMUM          303.2    
 AT NODE               365


                                INCREMENT   174 SUMMARY


 TIME INCREMENT COMPLETED   1.00    ,  FRACTION OF STEP COMPLETED  0.139    
 STEP TIME COMPLETED        166.    ,  TOTAL TIME COMPLETED         166.    
  
  
  
  
                                       N O D E   O U T P U T
  
  
  
  
   THE FOLLOWING TABLE IS PRINTED FOR NODES BELONGING TO NODE SET ASSEMBLY_COOLINGPOINT
  
       NODE FOOT-   NT11     
            NOTE
  
        365       301.8     

 MAXIMUM          301.8    
 AT NODE               365

 MINIMUM          301.8    
 AT NODE               365


                                INCREMENT   175 SUMMARY


 TIME INCREMENT COMPLETED   1.00    ,  FRACTION OF STEP COMPLETED  0.139    
 STEP TIME COMPLETED        167.    ,  TOTAL TIME COMPLETED         167.    
  
  
  
  
                                       N O D E   O U T P U T
  
  
  
  
   THE FOLLOWING TABLE IS PRINTED FOR NODES BELONGING TO NODE SET ASSEMBLY_COOLINGPOINT
  
       NODE FOOT-   NT11     
            NOTE
  
        365       300.5     

 MAXIMUM          300.5    
 AT NODE               365

 MINIMUM          300.5    
 AT NODE               365


                                INCREMENT   176 SUMMARY


 TIME INCREMENT COMPLETED   1.00    ,  FRACTION OF STEP COMPLETED  0.140    
 STEP TIME COMPLETED        168.    ,  TOTAL TIME COMPLETED         168.    
  
  
  
  
                                       N O D E   O U T P U T
  
  
  
  
   THE FOLLOWING TABLE IS PRINTED FOR NODES BELONGING TO NODE SET ASSEMBLY_COOLINGPOINT
  
       NODE FOOT-   NT11     
            NOTE
  
        365       299.2     

 MAXIMUM          299.2    
 AT NODE               365

 MINIMUM          299.2    
 AT NODE               365


                                INCREMENT   177 SUMMARY


 TIME INCREMENT COMPLETED   1.00    ,  FRACTION OF STEP COMPLETED  0.141    
 STEP TIME COMPLETED        169.    ,  TOTAL TIME COMPLETED         169.    
  
  
  
  
                                       N O D E   O U T P U T
  
  
  
  
   THE FOLLOWING TABLE IS PRINTED FOR NODES BELONGING TO NODE SET ASSEMBLY_COOLINGPOINT
  
       NODE FOOT-   NT11     
            NOTE
  
        365       297.9     

 MAXIMUM          297.9    
 AT NODE               365

 MINIMUM          297.9    
 AT NODE               365


                                INCREMENT   178 SUMMARY


 TIME INCREMENT COMPLETED   1.00    ,  FRACTION OF STEP COMPLETED  0.142    
 STEP TIME COMPLETED        170.    ,  TOTAL TIME COMPLETED         170.    
  
  
  
  
                                       N O D E   O U T P U T
  
  
  
  
   THE FOLLOWING TABLE IS PRINTED FOR NODES BELONGING TO NODE SET ASSEMBLY_COOLINGPOINT
  
       NODE FOOT-   NT11     
            NOTE
  
        365       296.6     

 MAXIMUM          296.6    
 AT NODE               365

 MINIMUM          296.6    
 AT NODE               365


                                INCREMENT   179 SUMMARY


 TIME INCREMENT COMPLETED   1.00    ,  FRACTION OF STEP COMPLETED  0.143    
 STEP TIME COMPLETED        171.    ,  TOTAL TIME COMPLETED         171.    
  
  
  
  
                                       N O D E   O U T P U T
  
  
  
  
   THE FOLLOWING TABLE IS PRINTED FOR NODES BELONGING TO NODE SET ASSEMBLY_COOLINGPOINT
  
       NODE FOOT-   NT11     
            NOTE
  
        365       295.3     

 MAXIMUM          295.3    
 AT NODE               365

 MINIMUM          295.3    
 AT NODE               365


                                INCREMENT   180 SUMMARY


 TIME INCREMENT COMPLETED   1.00    ,  FRACTION OF STEP COMPLETED  0.144    
 STEP TIME COMPLETED        172.    ,  TOTAL TIME COMPLETED         172.    
  
  
  
  
                                       N O D E   O U T P U T
  
  
  
  
   THE FOLLOWING TABLE IS PRINTED FOR NODES BELONGING TO NODE SET ASSEMBLY_COOLINGPOINT
  
       NODE FOOT-   NT11     
            NOTE
  
        365       294.0     

 MAXIMUM          294.0    
 AT NODE               365

 MINIMUM          294.0    
 AT NODE               365


                                INCREMENT   181 SUMMARY


 TIME INCREMENT COMPLETED   1.00    ,  FRACTION OF STEP COMPLETED  0.144    
 STEP TIME COMPLETED        173.    ,  TOTAL TIME COMPLETED         173.    
  
  
  
  
                                       N O D E   O U T P U T
  
  
  
  
   THE FOLLOWING TABLE IS PRINTED FOR NODES BELONGING TO NODE SET ASSEMBLY_COOLINGPOINT
  
       NODE FOOT-   NT11     
            NOTE
  
        365       292.7     

 MAXIMUM          292.7    
 AT NODE               365

 MINIMUM          292.7    
 AT NODE               365


                                INCREMENT   182 SUMMARY


 TIME INCREMENT COMPLETED   1.00    ,  FRACTION OF STEP COMPLETED  0.145    
 STEP TIME COMPLETED        174.    ,  TOTAL TIME COMPLETED         174.    
  
  
  
  
                                       N O D E   O U T P U T
  
  
  
  
   THE FOLLOWING TABLE IS PRINTED FOR NODES BELONGING TO NODE SET ASSEMBLY_COOLINGPOINT
  
       NODE FOOT-   NT11     
            NOTE
  
        365       291.4     

 MAXIMUM          291.4    
 AT NODE               365

 MINIMUM          291.4    
 AT NODE               365


                                INCREMENT   183 SUMMARY


 TIME INCREMENT COMPLETED   1.00    ,  FRACTION OF STEP COMPLETED  0.146    
 STEP TIME COMPLETED        175.    ,  TOTAL TIME COMPLETED         175.    
  
  
  
  
                                       N O D E   O U T P U T
  
  
  
  
   THE FOLLOWING TABLE IS PRINTED FOR NODES BELONGING TO NODE SET ASSEMBLY_COOLINGPOINT
  
       NODE FOOT-   NT11     
            NOTE
  
        365       290.2     

 MAXIMUM          290.2    
 AT NODE               365

 MINIMUM          290.2    
 AT NODE               365


                                INCREMENT   184 SUMMARY


 TIME INCREMENT COMPLETED   1.00    ,  FRACTION OF STEP COMPLETED  0.147    
 STEP TIME COMPLETED        176.    ,  TOTAL TIME COMPLETED         176.    
  
  
  
  
                                       N O D E   O U T P U T
  
  
  
  
   THE FOLLOWING TABLE IS PRINTED FOR NODES BELONGING TO NODE SET ASSEMBLY_COOLINGPOINT
  
       NODE FOOT-   NT11     
            NOTE
  
        365       288.9     

 MAXIMUM          288.9    
 AT NODE               365

 MINIMUM          288.9    
 AT NODE               365


                                INCREMENT   185 SUMMARY


 TIME INCREMENT COMPLETED   1.00    ,  FRACTION OF STEP COMPLETED  0.148    
 STEP TIME COMPLETED        177.    ,  TOTAL TIME COMPLETED         177.    
  
  
  
  
                                       N O D E   O U T P U T
  
  
  
  
   THE FOLLOWING TABLE IS PRINTED FOR NODES BELONGING TO NODE SET ASSEMBLY_COOLINGPOINT
  
       NODE FOOT-   NT11     
            NOTE
  
        365       287.7     

 MAXIMUM          287.7    
 AT NODE               365

 MINIMUM          287.7    
 AT NODE               365


                                INCREMENT   186 SUMMARY


 TIME INCREMENT COMPLETED   1.00    ,  FRACTION OF STEP COMPLETED  0.149    
 STEP TIME COMPLETED        178.    ,  TOTAL TIME COMPLETED         178.    
  
  
  
  
                                       N O D E   O U T P U T
  
  
  
  
   THE FOLLOWING TABLE IS PRINTED FOR NODES BELONGING TO NODE SET ASSEMBLY_COOLINGPOINT
  
       NODE FOOT-   NT11     
            NOTE
  
        365       286.8     

 MAXIMUM          286.8    
 AT NODE               365

 MINIMUM          286.8    
 AT NODE               365


                                INCREMENT   187 SUMMARY


 TIME INCREMENT COMPLETED   1.00    ,  FRACTION OF STEP COMPLETED  0.149    
 STEP TIME COMPLETED        179.    ,  TOTAL TIME COMPLETED         179.    
  
  
  
  
                                       N O D E   O U T P U T
  
  
  
  
   THE FOLLOWING TABLE IS PRINTED FOR NODES BELONGING TO NODE SET ASSEMBLY_COOLINGPOINT
  
       NODE FOOT-   NT11     
            NOTE
  
        365       287.4     

 MAXIMUM          287.4    
 AT NODE               365

 MINIMUM          287.4    
 AT NODE               365


                                INCREMENT   188 SUMMARY


 TIME INCREMENT COMPLETED   1.00    ,  FRACTION OF STEP COMPLETED  0.150    
 STEP TIME COMPLETED        180.    ,  TOTAL TIME COMPLETED         180.    
  
  
  
  
                                       N O D E   O U T P U T
  
  
  
  
   THE FOLLOWING TABLE IS PRINTED FOR NODES BELONGING TO NODE SET ASSEMBLY_COOLINGPOINT
  
       NODE FOOT-   NT11     
            NOTE
  
        365       289.3     

 MAXIMUM          289.3    
 AT NODE               365

 MINIMUM          289.3    
 AT NODE               365


                                INCREMENT   189 SUMMARY


 TIME INCREMENT COMPLETED   1.00    ,  FRACTION OF STEP COMPLETED  0.151    
 STEP TIME COMPLETED        181.    ,  TOTAL TIME COMPLETED         181.    
  
  
  
  
                                       N O D E   O U T P U T
  
  
  
  
   THE FOLLOWING TABLE IS PRINTED FOR NODES BELONGING TO NODE SET ASSEMBLY_COOLINGPOINT
  
       NODE FOOT-   NT11     
            NOTE
  
        365       291.9     

 MAXIMUM          291.9    
 AT NODE               365

 MINIMUM          291.9    
 AT NODE               365


          THE ANALYSIS IS ENDED BECAUSE OF THE PROBLEMS ENCOUNTERED
          LOOK AT THE MSG FILE FOR THE CAUSE OF THE TERMINATION



                              ANALYSIS IS ENDED
                              WITH      1 ERROR MESSAGES ON THE MSG FILE



     JOB TIME SUMMARY
       USER TIME (SEC)      =   4.9000    
       SYSTEM TIME (SEC)    =  0.90000    
       TOTAL CPU TIME (SEC) =   5.8000    
       WALLCLOCK TIME (SEC) =          6
